version 2
run cApplicationTest-0-20170308-19:19:14-12520
attr configname cApplicationTest
attr datetime 20170308-19:19:14
attr experiment cApplicationTest
attr inifile omnetpp.ini
attr iterationvars ""
attr iterationvars2 $repetition=0
attr measurement ""
attr network cApplicationTest
attr processid 12520
attr repetition 0
attr replication #0
attr resultdir results
attr runnumber 0
attr seedset 0
param **.ap.mobility.initFromDisplayString false
param **.ap.mobility.initialX 300m
param **.ap.mobility.initialY 300m
param **.ap.mobility.initialZ 0m
param **.ap.mobilityType "\"StationaryMobility\""
param **.constraintAreaMaxX 600m
param **.constraintAreaMaxY 600m
param **.constraintAreaMaxZ 0m
param **.constraintAreaMinX 0m
param **.constraintAreaMinY 0m
param **.constraintAreaMinZ 0m
param **.hostNum 3
param **.host[*].app.burstInterval exponential(0.1s)
param **.host[*].app.burstNum "normal(50, 5)"
param **.host[*].app.packetLength 4096b
param **.host[*].app.startTime 0s
param **.host[*].appType "\"BurstGenerator\""
param **.host[*].mobility.initFromDisplayString false
param **.host[*].mobility.speed 20mps
param **.host[*].mobility.updateInterval 1s
param **.host[*].mobility.waitTime 0.5s
param **.host[*].mobilityType "\"RandomWPMobility\""

vector 2  cApplicationTest.host[2].sink  rcvdPk:vector(packetBytes)  ETV
attr interpolationmode  none
attr source  rcvdPk
attr title  "packets received, vector(packetBytes)"
vector 0  cApplicationTest.host[0].sink  rcvdPk:vector(packetBytes)  ETV
attr interpolationmode  none
attr source  rcvdPk
attr title  "packets received, vector(packetBytes)"
vector 1  cApplicationTest.host[1].sink  rcvdPk:vector(packetBytes)  ETV
attr interpolationmode  none
attr source  rcvdPk
attr title  "packets received, vector(packetBytes)"
0	44	0.097700642639	512
0	45	0.097700642639	512
0	46	0.097700642639	512
0	47	0.097700642639	512
0	48	0.097700642639	512
0	49	0.097700642639	512
0	50	0.097700642639	512
0	51	0.097700642639	512
0	52	0.097700642639	512
0	53	0.097700642639	512
0	54	0.097700642639	512
0	55	0.097700642639	512
0	56	0.097700642639	512
0	57	0.097700642639	512
0	58	0.097700642639	512
0	59	0.097700642639	512
0	60	0.097700642639	512
0	61	0.097700642639	512
0	62	0.097700642639	512
0	63	0.097700642639	512
0	64	0.097700642639	512
0	65	0.097700642639	512
0	66	0.097700642639	512
0	67	0.097700642639	512
0	68	0.097700642639	512
0	69	0.097700642639	512
0	70	0.097700642639	512
0	71	0.097700642639	512
0	72	0.097700642639	512
0	73	0.097700642639	512
0	74	0.097700642639	512
0	75	0.097700642639	512
0	76	0.097700642639	512
0	77	0.097700642639	512
0	78	0.097700642639	512
0	79	0.097700642639	512
0	80	0.097700642639	512
0	81	0.097700642639	512
0	82	0.097700642639	512
0	83	0.097700642639	512
0	84	0.097700642639	512
0	85	0.097700642639	512
0	86	0.097700642639	512
0	87	0.097700642639	512
0	367	0.357526051224	512
0	368	0.357526051224	512
0	369	0.357526051224	512
0	370	0.357526051224	512
0	371	0.357526051224	512
0	372	0.357526051224	512
0	373	0.357526051224	512
0	374	0.357526051224	512
0	375	0.357526051224	512
0	376	0.357526051224	512
0	377	0.357526051224	512
0	378	0.357526051224	512
0	379	0.357526051224	512
0	380	0.357526051224	512
0	381	0.357526051224	512
0	382	0.357526051224	512
0	383	0.357526051224	512
0	384	0.357526051224	512
0	385	0.357526051224	512
0	386	0.357526051224	512
0	387	0.357526051224	512
0	388	0.357526051224	512
0	389	0.357526051224	512
0	390	0.357526051224	512
0	391	0.357526051224	512
0	392	0.357526051224	512
0	393	0.357526051224	512
0	394	0.357526051224	512
0	395	0.357526051224	512
0	396	0.357526051224	512
0	397	0.357526051224	512
0	398	0.357526051224	512
0	399	0.357526051224	512
0	400	0.357526051224	512
0	401	0.357526051224	512
0	402	0.357526051224	512
0	403	0.357526051224	512
0	404	0.357526051224	512
0	405	0.357526051224	512
0	406	0.357526051224	512
0	407	0.357526051224	512
0	408	0.357526051224	512
0	409	0.357526051224	512
0	410	0.357526051224	512
0	411	0.357526051224	512
0	412	0.357526051224	512
0	413	0.357526051224	512
0	414	0.357526051224	512
0	415	0.357526051224	512
0	416	0.357526051224	512
0	417	0.357526051224	512
0	418	0.357526051224	512
0	472	0.419418997187	512
0	473	0.419418997187	512
0	474	0.419418997187	512
0	475	0.419418997187	512
0	476	0.419418997187	512
0	477	0.419418997187	512
0	478	0.419418997187	512
0	479	0.419418997187	512
0	480	0.419418997187	512
0	481	0.419418997187	512
0	482	0.419418997187	512
0	483	0.419418997187	512
0	484	0.419418997187	512
0	485	0.419418997187	512
0	486	0.419418997187	512
0	487	0.419418997187	512
0	488	0.419418997187	512
0	489	0.419418997187	512
0	490	0.419418997187	512
0	491	0.419418997187	512
0	492	0.419418997187	512
1	89	0.103815930066	512
1	90	0.103815930066	512
1	91	0.103815930066	512
1	92	0.103815930066	512
1	93	0.103815930066	512
1	94	0.103815930066	512
1	95	0.103815930066	512
1	96	0.103815930066	512
1	97	0.103815930066	512
1	98	0.103815930066	512
1	99	0.103815930066	512
1	100	0.103815930066	512
1	101	0.103815930066	512
1	102	0.103815930066	512
1	103	0.103815930066	512
1	104	0.103815930066	512
1	105	0.103815930066	512
1	106	0.103815930066	512
1	107	0.103815930066	512
1	108	0.103815930066	512
1	109	0.103815930066	512
1	110	0.103815930066	512
1	111	0.103815930066	512
1	112	0.103815930066	512
1	113	0.103815930066	512
1	114	0.103815930066	512
1	115	0.103815930066	512
1	116	0.103815930066	512
1	117	0.103815930066	512
1	118	0.103815930066	512
1	119	0.103815930066	512
1	120	0.103815930066	512
1	121	0.103815930066	512
1	122	0.103815930066	512
1	123	0.103815930066	512
1	124	0.103815930066	512
1	125	0.103815930066	512
1	126	0.103815930066	512
1	127	0.103815930066	512
1	128	0.103815930066	512
1	129	0.103815930066	512
1	130	0.103815930066	512
1	131	0.103815930066	512
1	132	0.103815930066	512
1	133	0.103815930066	512
1	134	0.103815930066	512
1	135	0.103815930066	512
1	136	0.103815930066	512
1	137	0.103815930066	512
1	138	0.103815930066	512
1	139	0.103815930066	512
1	140	0.103815930066	512
1	141	0.103815930066	512
1	142	0.103815930066	512
1	143	0.103815930066	512
1	144	0.103815930066	512
1	145	0.103815930066	512
1	146	0.103815930066	512
1	250	0.14497372969	512
1	251	0.14497372969	512
1	252	0.14497372969	512
1	253	0.14497372969	512
1	254	0.14497372969	512
1	255	0.14497372969	512
1	256	0.14497372969	512
1	257	0.14497372969	512
1	258	0.14497372969	512
1	259	0.14497372969	512
1	260	0.14497372969	512
1	261	0.14497372969	512
1	262	0.14497372969	512
1	263	0.14497372969	512
1	264	0.14497372969	512
1	265	0.14497372969	512
1	266	0.14497372969	512
1	267	0.14497372969	512
1	268	0.14497372969	512
1	269	0.14497372969	512
1	270	0.14497372969	512
1	271	0.14497372969	512
1	272	0.14497372969	512
1	273	0.14497372969	512
1	274	0.14497372969	512
1	275	0.14497372969	512
1	276	0.14497372969	512
1	277	0.14497372969	512
1	278	0.14497372969	512
1	279	0.14497372969	512
1	280	0.14497372969	512
1	281	0.14497372969	512
1	282	0.14497372969	512
1	283	0.14497372969	512
1	284	0.14497372969	512
1	285	0.14497372969	512
1	286	0.14497372969	512
1	287	0.14497372969	512
1	288	0.14497372969	512
1	289	0.14497372969	512
1	290	0.14497372969	512
1	291	0.14497372969	512
1	292	0.14497372969	512
1	293	0.14497372969	512
1	294	0.14497372969	512
1	295	0.14497372969	512
1	296	0.14497372969	512
1	297	0.14497372969	512
1	298	0.14497372969	512
1	299	0.14497372969	512
1	300	0.14497372969	512
1	301	0.14497372969	512
1	302	0.14497372969	512
1	303	0.14497372969	512
1	304	0.14497372969	512
1	306	0.349005155484	512
1	307	0.349005155484	512
1	308	0.349005155484	512
1	309	0.349005155484	512
1	310	0.349005155484	512
1	311	0.349005155484	512
1	312	0.349005155484	512
1	313	0.349005155484	512
1	314	0.349005155484	512
1	315	0.349005155484	512
1	316	0.349005155484	512
1	317	0.349005155484	512
1	318	0.349005155484	512
1	319	0.349005155484	512
1	320	0.349005155484	512
1	321	0.349005155484	512
1	322	0.349005155484	512
1	323	0.349005155484	512
1	324	0.349005155484	512
1	325	0.349005155484	512
1	326	0.349005155484	512
1	327	0.349005155484	512
1	328	0.349005155484	512
1	329	0.349005155484	512
1	330	0.349005155484	512
1	331	0.349005155484	512
1	332	0.349005155484	512
1	333	0.349005155484	512
1	334	0.349005155484	512
1	335	0.349005155484	512
1	336	0.349005155484	512
1	337	0.349005155484	512
1	338	0.349005155484	512
1	339	0.349005155484	512
1	340	0.349005155484	512
1	341	0.349005155484	512
1	342	0.349005155484	512
1	343	0.349005155484	512
1	344	0.349005155484	512
1	345	0.349005155484	512
1	346	0.349005155484	512
1	347	0.349005155484	512
1	348	0.349005155484	512
1	349	0.349005155484	512
1	350	0.349005155484	512
1	351	0.349005155484	512
1	352	0.349005155484	512
1	353	0.349005155484	512
1	354	0.349005155484	512
1	355	0.349005155484	512
1	356	0.349005155484	512
1	357	0.349005155484	512
1	358	0.349005155484	512
1	359	0.349005155484	512
1	360	0.349005155484	512
1	361	0.349005155484	512
1	362	0.349005155484	512
1	363	0.349005155484	512
1	364	0.349005155484	512
1	365	0.349005155484	512
1	420	0.413176072752	512
1	421	0.413176072752	512
1	422	0.413176072752	512
1	423	0.413176072752	512
1	424	0.413176072752	512
1	425	0.413176072752	512
1	426	0.413176072752	512
1	427	0.413176072752	512
1	428	0.413176072752	512
1	429	0.413176072752	512
1	430	0.413176072752	512
1	431	0.413176072752	512
1	432	0.413176072752	512
1	433	0.413176072752	512
1	434	0.413176072752	512
1	435	0.413176072752	512
1	436	0.413176072752	512
1	437	0.413176072752	512
1	438	0.413176072752	512
1	439	0.413176072752	512
1	440	0.413176072752	512
1	441	0.413176072752	512
1	442	0.413176072752	512
1	443	0.413176072752	512
1	444	0.413176072752	512
1	445	0.413176072752	512
1	446	0.413176072752	512
1	447	0.413176072752	512
1	448	0.413176072752	512
1	449	0.413176072752	512
1	450	0.413176072752	512
1	451	0.413176072752	512
1	452	0.413176072752	512
1	453	0.413176072752	512
1	454	0.413176072752	512
1	455	0.413176072752	512
1	456	0.413176072752	512
1	457	0.413176072752	512
1	458	0.413176072752	512
1	459	0.413176072752	512
1	460	0.413176072752	512
1	461	0.413176072752	512
1	462	0.413176072752	512
1	463	0.413176072752	512
1	464	0.413176072752	512
1	465	0.413176072752	512
1	466	0.413176072752	512
1	467	0.413176072752	512
1	468	0.413176072752	512
1	469	0.413176072752	512
1	470	0.413176072752	512
2	2	0.048512816372	512
2	3	0.048512816372	512
2	4	0.048512816372	512
2	5	0.048512816372	512
2	6	0.048512816372	512
2	7	0.048512816372	512
2	8	0.048512816372	512
2	9	0.048512816372	512
2	10	0.048512816372	512
2	11	0.048512816372	512
2	12	0.048512816372	512
2	13	0.048512816372	512
2	14	0.048512816372	512
2	15	0.048512816372	512
2	16	0.048512816372	512
2	17	0.048512816372	512
2	18	0.048512816372	512
2	19	0.048512816372	512
2	20	0.048512816372	512
2	21	0.048512816372	512
2	22	0.048512816372	512
2	23	0.048512816372	512
2	24	0.048512816372	512
2	25	0.048512816372	512
2	26	0.048512816372	512
2	27	0.048512816372	512
2	28	0.048512816372	512
2	29	0.048512816372	512
2	30	0.048512816372	512
2	31	0.048512816372	512
2	32	0.048512816372	512
2	33	0.048512816372	512
2	34	0.048512816372	512
2	35	0.048512816372	512
2	36	0.048512816372	512
2	37	0.048512816372	512
2	38	0.048512816372	512
2	39	0.048512816372	512
2	40	0.048512816372	512
2	41	0.048512816372	512
2	42	0.048512816372	512
2	148	0.113901073094	512
2	149	0.113901073094	512
2	150	0.113901073094	512
2	151	0.113901073094	512
2	152	0.113901073094	512
2	153	0.113901073094	512
2	154	0.113901073094	512
2	155	0.113901073094	512
2	156	0.113901073094	512
2	157	0.113901073094	512
2	158	0.113901073094	512
2	159	0.113901073094	512
2	160	0.113901073094	512
2	161	0.113901073094	512
2	162	0.113901073094	512
2	163	0.113901073094	512
2	164	0.113901073094	512
2	165	0.113901073094	512
2	166	0.113901073094	512
2	167	0.113901073094	512
2	168	0.113901073094	512
2	169	0.113901073094	512
2	170	0.113901073094	512
2	171	0.113901073094	512
2	172	0.113901073094	512
2	173	0.113901073094	512
2	174	0.113901073094	512
2	175	0.113901073094	512
2	176	0.113901073094	512
2	177	0.113901073094	512
2	178	0.113901073094	512
2	179	0.113901073094	512
2	180	0.113901073094	512
2	181	0.113901073094	512
2	182	0.113901073094	512
2	183	0.113901073094	512
2	184	0.113901073094	512
2	185	0.113901073094	512
2	186	0.113901073094	512
2	187	0.113901073094	512
2	188	0.113901073094	512
2	189	0.113901073094	512
2	190	0.113901073094	512
2	191	0.113901073094	512
2	192	0.113901073094	512
2	193	0.113901073094	512
2	194	0.113901073094	512
2	195	0.113901073094	512
2	197	0.115943631934	512
2	198	0.115943631934	512
2	199	0.115943631934	512
2	200	0.115943631934	512
2	201	0.115943631934	512
2	202	0.115943631934	512
2	203	0.115943631934	512
2	204	0.115943631934	512
2	205	0.115943631934	512
2	206	0.115943631934	512
2	207	0.115943631934	512
2	208	0.115943631934	512
2	209	0.115943631934	512
2	210	0.115943631934	512
2	211	0.115943631934	512
2	212	0.115943631934	512
2	213	0.115943631934	512
2	214	0.115943631934	512
2	215	0.115943631934	512
2	216	0.115943631934	512
2	217	0.115943631934	512
2	218	0.115943631934	512
2	219	0.115943631934	512
2	220	0.115943631934	512
2	221	0.115943631934	512
2	222	0.115943631934	512
2	223	0.115943631934	512
2	224	0.115943631934	512
2	225	0.115943631934	512
2	226	0.115943631934	512
2	227	0.115943631934	512
2	228	0.115943631934	512
2	229	0.115943631934	512
2	230	0.115943631934	512
2	231	0.115943631934	512
2	232	0.115943631934	512
2	233	0.115943631934	512
2	234	0.115943631934	512
2	235	0.115943631934	512
2	236	0.115943631934	512
2	237	0.115943631934	512
2	238	0.115943631934	512
2	239	0.115943631934	512
2	240	0.115943631934	512
2	241	0.115943631934	512
2	242	0.115943631934	512
2	243	0.115943631934	512
2	244	0.115943631934	512
2	245	0.115943631934	512
2	246	0.115943631934	512
2	247	0.115943631934	512
2	248	0.115943631934	512
