version 2
run LD-hostNum-6-20170327-21:45:44-16656
attr configname LD-hostNum
attr datetime 20170327-21:45:44
attr experiment LD-hostNum
attr inifile omnetpp.ini
attr iterationvars $0=70
attr iterationvars2 "$0=70, $repetition=0"
attr measurement $0=70
attr network ldMacTest
attr processid 16656
attr repetition 0
attr replication #0
attr resultdir results
attr runnumber 6
attr seedset 6
param **.ap.macType "\"LdApMac\""
param **.ap.mobility.initFromDisplayString false
param **.ap.mobility.initialX 300000m
param **.ap.mobility.initialY 300000m
param **.ap.mobility.initialZ 0m
param **.ap.mobilityType "\"StationaryMobility\""
param **.constraintAreaMaxX 600000m
param **.constraintAreaMaxY 600000m
param **.constraintAreaMaxZ 0m
param **.constraintAreaMinX 0m
param **.constraintAreaMinY 0m
param **.constraintAreaMinZ 0m
param **.hostNum 50
param **.host[*].app.burstInterval exponential(1.5s)
param **.host[*].app.burstNum "normal(200, 50)"
param **.host[*].app.packetLength 4096b
param **.host[*].app.startTime 0s
param **.host[*].appType "\"BurstGenerator\""
param **.host[*].mac.communicationRange 300000m
param **.host[*].mac.reqLength 100b
param **.host[*].mac.txRate 100000000bps
param **.host[*].macType "\"LdHostMac\""
param **.host[*].mobility.initFromDisplayString false
param **.host[*].mobility.speed uniform(80mps,100mps)
param **.host[*].mobility.updateInterval 1s
param **.host[*].mobility.waitTime 0s
param **.host[*].mobilityType "\"RandomWPMobility\""
param **.reqSlotNum 20
param **.slotLength 0.1ms
param **.slotNum 1000

scalar ldMacTest.ap.mac 	pkCount10:count 	5725822
attr interpolationmode  node
attr source  pkCount10
attr title  "pkCount10, count"
scalar ldMacTest.ap.mac 	pkCount9:count 	6531085
attr interpolationmode  node
attr source  pkCount9
attr title  "pkCount9, count"
scalar ldMacTest.ap.mac 	pkCount8:count 	7094714
attr interpolationmode  node
attr source  pkCount8
attr title  "pkCount8, count"
scalar ldMacTest.ap.mac 	pkCount7:count 	9567153
attr interpolationmode  node
attr source  pkCount7
attr title  "pkCount7, count"
scalar ldMacTest.ap.mac 	pkCount6:count 	8925465
attr interpolationmode  node
attr source  pkCount6
attr title  "pkCount6, count"
scalar ldMacTest.ap.mac 	pkCount5:count 	7919036
attr interpolationmode  node
attr source  pkCount5
attr title  "pkCount5, count"
scalar ldMacTest.ap.mac 	pkCount4:count 	7523581
attr interpolationmode  node
attr source  pkCount4
attr title  "pkCount4, count"
scalar ldMacTest.ap.mac 	pkCount3:count 	4865572
attr interpolationmode  node
attr source  pkCount3
attr title  "pkCount3, count"
scalar ldMacTest.ap.mac 	pkCount2:count 	2519531
attr interpolationmode  node
attr source  pkCount2
attr title  "pkCount2, count"
scalar ldMacTest.ap.mac 	pkCount1:count 	1414386
attr interpolationmode  node
attr source  pkCount1
attr title  "pkCount1, count"
scalar ldMacTest.ap.mac 	pkCount:count 	62086345
attr interpolationmode  node
attr source  pkCount
attr title  "pkCount, count"
scalar ldMacTest.host[0].app 	errorCount:count 	0
attr interpolationmode  node
attr source  errorCount
attr title  "errorCount, count"
scalar ldMacTest.host[0].app 	appPkCount:count 	944848
attr interpolationmode  node
attr source  appPkCount
attr title  "appPkCount, count"
scalar ldMacTest.host[0].mac 	time10:count 	2722
attr source  time10
attr title  "time10, count"
scalar ldMacTest.host[0].mac 	time9:count 	7410
attr source  time9
attr title  "time9, count"
scalar ldMacTest.host[0].mac 	time8:count 	9292
attr source  time8
attr title  "time8, count"
scalar ldMacTest.host[0].mac 	time7:count 	9521
attr source  time7
attr title  "time7, count"
scalar ldMacTest.host[0].mac 	time6:count 	10014
attr source  time6
attr title  "time6, count"
scalar ldMacTest.host[0].mac 	time5:count 	11236
attr source  time5
attr title  "time5, count"
scalar ldMacTest.host[0].mac 	time4:count 	15759
attr source  time4
attr title  "time4, count"
scalar ldMacTest.host[0].mac 	time3:count 	0
attr source  time3
attr title  "time3, count"
scalar ldMacTest.host[0].mac 	time2:count 	0
attr source  time2
attr title  "time2, count"
scalar ldMacTest.host[0].mac 	time1:count 	0
attr source  time1
attr title  "time1, count"
scalar ldMacTest.host[0].mac 	time0:count 	65954
attr source  time0
attr title  "time0, count"
scalar ldMacTest.host[0].mac 	sentPkCount:count 	944848
attr interpolationmode  node
attr source  sentPkCount
attr title  "pkCount, count"
scalar ldMacTest.host[0].mac 	discardPkCount:count 	0
attr interpolationmode  node
attr source  discardPkCount
attr title  "discardPkCount, count"
scalar ldMacTest.host[0].mac 	queueTime:mean 	0.16570252086338
attr source  queueTime
attr title  "queueTime, mean"
scalar ldMacTest.host[1].app 	errorCount:count 	0
attr interpolationmode  node
attr source  errorCount
attr title  "errorCount, count"
scalar ldMacTest.host[1].app 	appPkCount:count 	970315
attr interpolationmode  node
attr source  appPkCount
attr title  "appPkCount, count"
scalar ldMacTest.host[1].mac 	time10:count 	3433
attr source  time10
attr title  "time10, count"
scalar ldMacTest.host[1].mac 	time9:count 	3256
attr source  time9
attr title  "time9, count"
scalar ldMacTest.host[1].mac 	time8:count 	3336
attr source  time8
attr title  "time8, count"
scalar ldMacTest.host[1].mac 	time7:count 	3592
attr source  time7
attr title  "time7, count"
scalar ldMacTest.host[1].mac 	time6:count 	9788
attr source  time6
attr title  "time6, count"
scalar ldMacTest.host[1].mac 	time5:count 	15563
attr source  time5
attr title  "time5, count"
scalar ldMacTest.host[1].mac 	time4:count 	18859
attr source  time4
attr title  "time4, count"
scalar ldMacTest.host[1].mac 	time3:count 	6801
attr source  time3
attr title  "time3, count"
scalar ldMacTest.host[1].mac 	time2:count 	0
attr source  time2
attr title  "time2, count"
scalar ldMacTest.host[1].mac 	time1:count 	0
attr source  time1
attr title  "time1, count"
scalar ldMacTest.host[1].mac 	time0:count 	64628
attr source  time0
attr title  "time0, count"
scalar ldMacTest.host[1].mac 	sentPkCount:count 	951711
attr interpolationmode  node
attr source  sentPkCount
attr title  "pkCount, count"
scalar ldMacTest.host[1].mac 	discardPkCount:count 	0
attr interpolationmode  node
attr source  discardPkCount
attr title  "discardPkCount, count"
scalar ldMacTest.host[1].mac 	queueTime:mean 	0.15894097392754
attr source  queueTime
attr title  "queueTime, mean"
scalar ldMacTest.host[2].app 	errorCount:count 	0
attr interpolationmode  node
attr source  errorCount
attr title  "errorCount, count"
scalar ldMacTest.host[2].app 	appPkCount:count 	951323
attr interpolationmode  node
attr source  appPkCount
attr title  "appPkCount, count"
scalar ldMacTest.host[2].mac 	time10:count 	0
attr source  time10
attr title  "time10, count"
scalar ldMacTest.host[2].mac 	time9:count 	3432
attr source  time9
attr title  "time9, count"
scalar ldMacTest.host[2].mac 	time8:count 	6220
attr source  time8
attr title  "time8, count"
scalar ldMacTest.host[2].mac 	time7:count 	6483
attr source  time7
attr title  "time7, count"
scalar ldMacTest.host[2].mac 	time6:count 	7679
attr source  time6
attr title  "time6, count"
scalar ldMacTest.host[2].mac 	time5:count 	10194
attr source  time5
attr title  "time5, count"
scalar ldMacTest.host[2].mac 	time4:count 	11691
attr source  time4
attr title  "time4, count"
scalar ldMacTest.host[2].mac 	time3:count 	8416
attr source  time3
attr title  "time3, count"
scalar ldMacTest.host[2].mac 	time2:count 	7368
attr source  time2
attr title  "time2, count"
scalar ldMacTest.host[2].mac 	time1:count 	4591
attr source  time1
attr title  "time1, count"
scalar ldMacTest.host[2].mac 	time0:count 	66074
attr source  time0
attr title  "time0, count"
scalar ldMacTest.host[2].mac 	sentPkCount:count 	951323
attr interpolationmode  node
attr source  sentPkCount
attr title  "pkCount, count"
scalar ldMacTest.host[2].mac 	discardPkCount:count 	0
attr interpolationmode  node
attr source  discardPkCount
attr title  "discardPkCount, count"
scalar ldMacTest.host[2].mac 	queueTime:mean 	0.15420294380738
attr source  queueTime
attr title  "queueTime, mean"
scalar ldMacTest.host[3].app 	errorCount:count 	0
attr interpolationmode  node
attr source  errorCount
attr title  "errorCount, count"
scalar ldMacTest.host[3].app 	appPkCount:count 	938379
attr interpolationmode  node
attr source  appPkCount
attr title  "appPkCount, count"
scalar ldMacTest.host[3].mac 	time10:count 	9329
attr source  time10
attr title  "time10, count"
scalar ldMacTest.host[3].mac 	time9:count 	7845
attr source  time9
attr title  "time9, count"
scalar ldMacTest.host[3].mac 	time8:count 	6550
attr source  time8
attr title  "time8, count"
scalar ldMacTest.host[3].mac 	time7:count 	6864
attr source  time7
attr title  "time7, count"
scalar ldMacTest.host[3].mac 	time6:count 	9306
attr source  time6
attr title  "time6, count"
scalar ldMacTest.host[3].mac 	time5:count 	8853
attr source  time5
attr title  "time5, count"
scalar ldMacTest.host[3].mac 	time4:count 	8950
attr source  time4
attr title  "time4, count"
scalar ldMacTest.host[3].mac 	time3:count 	7886
attr source  time3
attr title  "time3, count"
scalar ldMacTest.host[3].mac 	time2:count 	0
attr source  time2
attr title  "time2, count"
scalar ldMacTest.host[3].mac 	time1:count 	0
attr source  time1
attr title  "time1, count"
scalar ldMacTest.host[3].mac 	time0:count 	65583
attr source  time0
attr title  "time0, count"
scalar ldMacTest.host[3].mac 	sentPkCount:count 	931363
attr interpolationmode  node
attr source  sentPkCount
attr title  "pkCount, count"
scalar ldMacTest.host[3].mac 	discardPkCount:count 	0
attr interpolationmode  node
attr source  discardPkCount
attr title  "discardPkCount, count"
scalar ldMacTest.host[3].mac 	queueTime:mean 	0.16483049446424
attr source  queueTime
attr title  "queueTime, mean"
scalar ldMacTest.host[4].app 	errorCount:count 	0
attr interpolationmode  node
attr source  errorCount
attr title  "errorCount, count"
scalar ldMacTest.host[4].app 	appPkCount:count 	947883
attr interpolationmode  node
attr source  appPkCount
attr title  "appPkCount, count"
scalar ldMacTest.host[4].mac 	time10:count 	758
attr source  time10
attr title  "time10, count"
scalar ldMacTest.host[4].mac 	time9:count 	11341
attr source  time9
attr title  "time9, count"
scalar ldMacTest.host[4].mac 	time8:count 	14663
attr source  time8
attr title  "time8, count"
scalar ldMacTest.host[4].mac 	time7:count 	26827
attr source  time7
attr title  "time7, count"
scalar ldMacTest.host[4].mac 	time6:count 	12384
attr source  time6
attr title  "time6, count"
scalar ldMacTest.host[4].mac 	time5:count 	0
attr source  time5
attr title  "time5, count"
scalar ldMacTest.host[4].mac 	time4:count 	0
attr source  time4
attr title  "time4, count"
scalar ldMacTest.host[4].mac 	time3:count 	0
attr source  time3
attr title  "time3, count"
scalar ldMacTest.host[4].mac 	time2:count 	0
attr source  time2
attr title  "time2, count"
scalar ldMacTest.host[4].mac 	time1:count 	0
attr source  time1
attr title  "time1, count"
scalar ldMacTest.host[4].mac 	time0:count 	65973
attr source  time0
attr title  "time0, count"
scalar ldMacTest.host[4].mac 	sentPkCount:count 	947883
attr interpolationmode  node
attr source  sentPkCount
attr title  "pkCount, count"
scalar ldMacTest.host[4].mac 	discardPkCount:count 	0
attr interpolationmode  node
attr source  discardPkCount
attr title  "discardPkCount, count"
scalar ldMacTest.host[4].mac 	queueTime:mean 	0.17084670909053
attr source  queueTime
attr title  "queueTime, mean"
scalar ldMacTest.host[5].app 	errorCount:count 	0
attr interpolationmode  node
attr source  errorCount
attr title  "errorCount, count"
scalar ldMacTest.host[5].app 	appPkCount:count 	986804
attr interpolationmode  node
attr source  appPkCount
attr title  "appPkCount, count"
scalar ldMacTest.host[5].mac 	time10:count 	11528
attr source  time10
attr title  "time10, count"
scalar ldMacTest.host[5].mac 	time9:count 	7401
attr source  time9
attr title  "time9, count"
scalar ldMacTest.host[5].mac 	time8:count 	8087
attr source  time8
attr title  "time8, count"
scalar ldMacTest.host[5].mac 	time7:count 	8393
attr source  time7
attr title  "time7, count"
scalar ldMacTest.host[5].mac 	time6:count 	1747
attr source  time6
attr title  "time6, count"
scalar ldMacTest.host[5].mac 	time5:count 	0
attr source  time5
attr title  "time5, count"
scalar ldMacTest.host[5].mac 	time4:count 	0
attr source  time4
attr title  "time4, count"
scalar ldMacTest.host[5].mac 	time3:count 	0
attr source  time3
attr title  "time3, count"
scalar ldMacTest.host[5].mac 	time2:count 	0
attr source  time2
attr title  "time2, count"
scalar ldMacTest.host[5].mac 	time1:count 	0
attr source  time1
attr title  "time1, count"
scalar ldMacTest.host[5].mac 	time0:count 	37156
attr source  time0
attr title  "time0, count"
scalar ldMacTest.host[5].mac 	sentPkCount:count 	555528
attr interpolationmode  node
attr source  sentPkCount
attr title  "pkCount, count"
scalar ldMacTest.host[5].mac 	discardPkCount:count 	0
attr interpolationmode  node
attr source  discardPkCount
attr title  "discardPkCount, count"
scalar ldMacTest.host[5].mac 	queueTime:mean 	0.19302920998317
attr source  queueTime
attr title  "queueTime, mean"
scalar ldMacTest.host[6].app 	errorCount:count 	0
attr interpolationmode  node
attr source  errorCount
attr title  "errorCount, count"
scalar ldMacTest.host[6].app 	appPkCount:count 	951207
attr interpolationmode  node
attr source  appPkCount
attr title  "appPkCount, count"
scalar ldMacTest.host[6].mac 	time10:count 	15044
attr source  time10
attr title  "time10, count"
scalar ldMacTest.host[6].mac 	time9:count 	25631
attr source  time9
attr title  "time9, count"
scalar ldMacTest.host[6].mac 	time8:count 	3165
attr source  time8
attr title  "time8, count"
scalar ldMacTest.host[6].mac 	time7:count 	3241
attr source  time7
attr title  "time7, count"
scalar ldMacTest.host[6].mac 	time6:count 	3330
attr source  time6
attr title  "time6, count"
scalar ldMacTest.host[6].mac 	time5:count 	3336
attr source  time5
attr title  "time5, count"
scalar ldMacTest.host[6].mac 	time4:count 	3326
attr source  time4
attr title  "time4, count"
scalar ldMacTest.host[6].mac 	time3:count 	3376
attr source  time3
attr title  "time3, count"
scalar ldMacTest.host[6].mac 	time2:count 	1071
attr source  time2
attr title  "time2, count"
scalar ldMacTest.host[6].mac 	time1:count 	0
attr source  time1
attr title  "time1, count"
scalar ldMacTest.host[6].mac 	time0:count 	61520
attr source  time0
attr title  "time0, count"
scalar ldMacTest.host[6].mac 	sentPkCount:count 	889831
attr interpolationmode  node
attr source  sentPkCount
attr title  "pkCount, count"
scalar ldMacTest.host[6].mac 	discardPkCount:count 	0
attr interpolationmode  node
attr source  discardPkCount
attr title  "discardPkCount, count"
scalar ldMacTest.host[6].mac 	queueTime:mean 	0.18432237276491
attr source  queueTime
attr title  "queueTime, mean"
scalar ldMacTest.host[7].app 	errorCount:count 	0
attr interpolationmode  node
attr source  errorCount
attr title  "errorCount, count"
scalar ldMacTest.host[7].app 	appPkCount:count 	945792
attr interpolationmode  node
attr source  appPkCount
attr title  "appPkCount, count"
scalar ldMacTest.host[7].mac 	time10:count 	8837
attr source  time10
attr title  "time10, count"
scalar ldMacTest.host[7].mac 	time9:count 	22700
attr source  time9
attr title  "time9, count"
scalar ldMacTest.host[7].mac 	time8:count 	4083
attr source  time8
attr title  "time8, count"
scalar ldMacTest.host[7].mac 	time7:count 	8093
attr source  time7
attr title  "time7, count"
scalar ldMacTest.host[7].mac 	time6:count 	14287
attr source  time6
attr title  "time6, count"
scalar ldMacTest.host[7].mac 	time5:count 	7980
attr source  time5
attr title  "time5, count"
scalar ldMacTest.host[7].mac 	time4:count 	0
attr source  time4
attr title  "time4, count"
scalar ldMacTest.host[7].mac 	time3:count 	0
attr source  time3
attr title  "time3, count"
scalar ldMacTest.host[7].mac 	time2:count 	0
attr source  time2
attr title  "time2, count"
scalar ldMacTest.host[7].mac 	time1:count 	0
attr source  time1
attr title  "time1, count"
scalar ldMacTest.host[7].mac 	time0:count 	65980
attr source  time0
attr title  "time0, count"
scalar ldMacTest.host[7].mac 	sentPkCount:count 	945792
attr interpolationmode  node
attr source  sentPkCount
attr title  "pkCount, count"
scalar ldMacTest.host[7].mac 	discardPkCount:count 	0
attr interpolationmode  node
attr source  discardPkCount
attr title  "discardPkCount, count"
scalar ldMacTest.host[7].mac 	queueTime:mean 	0.18004589211999
attr source  queueTime
attr title  "queueTime, mean"
scalar ldMacTest.host[8].app 	errorCount:count 	0
attr interpolationmode  node
attr source  errorCount
attr title  "errorCount, count"
scalar ldMacTest.host[8].app 	appPkCount:count 	975224
attr interpolationmode  node
attr source  appPkCount
attr title  "appPkCount, count"
scalar ldMacTest.host[8].mac 	time10:count 	6483
attr source  time10
attr title  "time10, count"
scalar ldMacTest.host[8].mac 	time9:count 	7766
attr source  time9
attr title  "time9, count"
scalar ldMacTest.host[8].mac 	time8:count 	7946
attr source  time8
attr title  "time8, count"
scalar ldMacTest.host[8].mac 	time7:count 	6330
attr source  time7
attr title  "time7, count"
scalar ldMacTest.host[8].mac 	time6:count 	6275
attr source  time6
attr title  "time6, count"
scalar ldMacTest.host[8].mac 	time5:count 	6320
attr source  time5
attr title  "time5, count"
scalar ldMacTest.host[8].mac 	time4:count 	6626
attr source  time4
attr title  "time4, count"
scalar ldMacTest.host[8].mac 	time3:count 	7535
attr source  time3
attr title  "time3, count"
scalar ldMacTest.host[8].mac 	time2:count 	9175
attr source  time2
attr title  "time2, count"
scalar ldMacTest.host[8].mac 	time1:count 	1453
attr source  time1
attr title  "time1, count"
scalar ldMacTest.host[8].mac 	time0:count 	65909
attr source  time0
attr title  "time0, count"
scalar ldMacTest.host[8].mac 	sentPkCount:count 	975224
attr interpolationmode  node
attr source  sentPkCount
attr title  "pkCount, count"
scalar ldMacTest.host[8].mac 	discardPkCount:count 	0
attr interpolationmode  node
attr source  discardPkCount
attr title  "discardPkCount, count"
scalar ldMacTest.host[8].mac 	queueTime:mean 	0.16119452500539
attr source  queueTime
attr title  "queueTime, mean"
scalar ldMacTest.host[9].app 	errorCount:count 	0
attr interpolationmode  node
attr source  errorCount
attr title  "errorCount, count"
scalar ldMacTest.host[9].app 	appPkCount:count 	957989
attr interpolationmode  node
attr source  appPkCount
attr title  "appPkCount, count"
scalar ldMacTest.host[9].mac 	time10:count 	6428
attr source  time10
attr title  "time10, count"
scalar ldMacTest.host[9].mac 	time9:count 	6389
attr source  time9
attr title  "time9, count"
scalar ldMacTest.host[9].mac 	time8:count 	6619
attr source  time8
attr title  "time8, count"
scalar ldMacTest.host[9].mac 	time7:count 	7093
attr source  time7
attr title  "time7, count"
scalar ldMacTest.host[9].mac 	time6:count 	4924
attr source  time6
attr title  "time6, count"
scalar ldMacTest.host[9].mac 	time5:count 	3132
attr source  time5
attr title  "time5, count"
scalar ldMacTest.host[9].mac 	time4:count 	3116
attr source  time4
attr title  "time4, count"
scalar ldMacTest.host[9].mac 	time3:count 	3116
attr source  time3
attr title  "time3, count"
scalar ldMacTest.host[9].mac 	time2:count 	3184
attr source  time2
attr title  "time2, count"
scalar ldMacTest.host[9].mac 	time1:count 	92
attr source  time1
attr title  "time1, count"
scalar ldMacTest.host[9].mac 	time0:count 	44093
attr source  time0
attr title  "time0, count"
scalar ldMacTest.host[9].mac 	sentPkCount:count 	644226
attr interpolationmode  node
attr source  sentPkCount
attr title  "pkCount, count"
scalar ldMacTest.host[9].mac 	discardPkCount:count 	0
attr interpolationmode  node
attr source  discardPkCount
attr title  "discardPkCount, count"
scalar ldMacTest.host[9].mac 	queueTime:mean 	0.18019270698942
attr source  queueTime
attr title  "queueTime, mean"
scalar ldMacTest.host[10].app 	errorCount:count 	0
attr interpolationmode  node
attr source  errorCount
attr title  "errorCount, count"
scalar ldMacTest.host[10].app 	appPkCount:count 	941130
attr interpolationmode  node
attr source  appPkCount
attr title  "appPkCount, count"
scalar ldMacTest.host[10].mac 	time10:count 	5893
attr source  time10
attr title  "time10, count"
scalar ldMacTest.host[10].mac 	time9:count 	6075
attr source  time9
attr title  "time9, count"
scalar ldMacTest.host[10].mac 	time8:count 	6465
attr source  time8
attr title  "time8, count"
scalar ldMacTest.host[10].mac 	time7:count 	6940
attr source  time7
attr title  "time7, count"
scalar ldMacTest.host[10].mac 	time6:count 	3925
attr source  time6
attr title  "time6, count"
scalar ldMacTest.host[10].mac 	time5:count 	3422
attr source  time5
attr title  "time5, count"
scalar ldMacTest.host[10].mac 	time4:count 	11560
attr source  time4
attr title  "time4, count"
scalar ldMacTest.host[10].mac 	time3:count 	8057
attr source  time3
attr title  "time3, count"
scalar ldMacTest.host[10].mac 	time2:count 	0
attr source  time2
attr title  "time2, count"
scalar ldMacTest.host[10].mac 	time1:count 	0
attr source  time1
attr title  "time1, count"
scalar ldMacTest.host[10].mac 	time0:count 	52337
attr source  time0
attr title  "time0, count"
scalar ldMacTest.host[10].mac 	sentPkCount:count 	755782
attr interpolationmode  node
attr source  sentPkCount
attr title  "pkCount, count"
scalar ldMacTest.host[10].mac 	discardPkCount:count 	0
attr interpolationmode  node
attr source  discardPkCount
attr title  "discardPkCount, count"
scalar ldMacTest.host[10].mac 	queueTime:mean 	0.16849754417613
attr source  queueTime
attr title  "queueTime, mean"
scalar ldMacTest.host[11].app 	errorCount:count 	0
attr interpolationmode  node
attr source  errorCount
attr title  "errorCount, count"
scalar ldMacTest.host[11].app 	appPkCount:count 	973203
attr interpolationmode  node
attr source  appPkCount
attr title  "appPkCount, count"
scalar ldMacTest.host[11].mac 	time10:count 	2700
attr source  time10
attr title  "time10, count"
scalar ldMacTest.host[11].mac 	time9:count 	8137
attr source  time9
attr title  "time9, count"
scalar ldMacTest.host[11].mac 	time8:count 	10506
attr source  time8
attr title  "time8, count"
scalar ldMacTest.host[11].mac 	time7:count 	24414
attr source  time7
attr title  "time7, count"
scalar ldMacTest.host[11].mac 	time6:count 	3855
attr source  time6
attr title  "time6, count"
scalar ldMacTest.host[11].mac 	time5:count 	4426
attr source  time5
attr title  "time5, count"
scalar ldMacTest.host[11].mac 	time4:count 	6052
attr source  time4
attr title  "time4, count"
scalar ldMacTest.host[11].mac 	time3:count 	5682
attr source  time3
attr title  "time3, count"
scalar ldMacTest.host[11].mac 	time2:count 	0
attr source  time2
attr title  "time2, count"
scalar ldMacTest.host[11].mac 	time1:count 	0
attr source  time1
attr title  "time1, count"
scalar ldMacTest.host[11].mac 	time0:count 	65772
attr source  time0
attr title  "time0, count"
scalar ldMacTest.host[11].mac 	sentPkCount:count 	973203
attr interpolationmode  node
attr source  sentPkCount
attr title  "pkCount, count"
scalar ldMacTest.host[11].mac 	discardPkCount:count 	0
attr interpolationmode  node
attr source  discardPkCount
attr title  "discardPkCount, count"
scalar ldMacTest.host[11].mac 	queueTime:mean 	0.17407881774532
attr source  queueTime
attr title  "queueTime, mean"
scalar ldMacTest.host[12].app 	errorCount:count 	0
attr interpolationmode  node
attr source  errorCount
attr title  "errorCount, count"
scalar ldMacTest.host[12].app 	appPkCount:count 	977134
attr interpolationmode  node
attr source  appPkCount
attr title  "appPkCount, count"
scalar ldMacTest.host[12].mac 	time10:count 	30174
attr source  time10
attr title  "time10, count"
scalar ldMacTest.host[12].mac 	time9:count 	3152
attr source  time9
attr title  "time9, count"
scalar ldMacTest.host[12].mac 	time8:count 	3117
attr source  time8
attr title  "time8, count"
scalar ldMacTest.host[12].mac 	time7:count 	3159
attr source  time7
attr title  "time7, count"
scalar ldMacTest.host[12].mac 	time6:count 	3128
attr source  time6
attr title  "time6, count"
scalar ldMacTest.host[12].mac 	time5:count 	3171
attr source  time5
attr title  "time5, count"
scalar ldMacTest.host[12].mac 	time4:count 	3280
attr source  time4
attr title  "time4, count"
scalar ldMacTest.host[12].mac 	time3:count 	3252
attr source  time3
attr title  "time3, count"
scalar ldMacTest.host[12].mac 	time2:count 	3299
attr source  time2
attr title  "time2, count"
scalar ldMacTest.host[12].mac 	time1:count 	4302
attr source  time1
attr title  "time1, count"
scalar ldMacTest.host[12].mac 	time0:count 	60034
attr source  time0
attr title  "time0, count"
scalar ldMacTest.host[12].mac 	sentPkCount:count 	894147
attr interpolationmode  node
attr source  sentPkCount
attr title  "pkCount, count"
scalar ldMacTest.host[12].mac 	discardPkCount:count 	0
attr interpolationmode  node
attr source  discardPkCount
attr title  "discardPkCount, count"
scalar ldMacTest.host[12].mac 	queueTime:mean 	0.18482484189816
attr source  queueTime
attr title  "queueTime, mean"
scalar ldMacTest.host[13].app 	errorCount:count 	0
attr interpolationmode  node
attr source  errorCount
attr title  "errorCount, count"
scalar ldMacTest.host[13].app 	appPkCount:count 	960051
attr interpolationmode  node
attr source  appPkCount
attr title  "appPkCount, count"
scalar ldMacTest.host[13].mac 	time10:count 	6236
attr source  time10
attr title  "time10, count"
scalar ldMacTest.host[13].mac 	time9:count 	6241
attr source  time9
attr title  "time9, count"
scalar ldMacTest.host[13].mac 	time8:count 	6106
attr source  time8
attr title  "time8, count"
scalar ldMacTest.host[13].mac 	time7:count 	6209
attr source  time7
attr title  "time7, count"
scalar ldMacTest.host[13].mac 	time6:count 	8591
attr source  time6
attr title  "time6, count"
scalar ldMacTest.host[13].mac 	time5:count 	10202
attr source  time5
attr title  "time5, count"
scalar ldMacTest.host[13].mac 	time4:count 	5688
attr source  time4
attr title  "time4, count"
scalar ldMacTest.host[13].mac 	time3:count 	5779
attr source  time3
attr title  "time3, count"
scalar ldMacTest.host[13].mac 	time2:count 	6657
attr source  time2
attr title  "time2, count"
scalar ldMacTest.host[13].mac 	time1:count 	3696
attr source  time1
attr title  "time1, count"
scalar ldMacTest.host[13].mac 	time0:count 	65405
attr source  time0
attr title  "time0, count"
scalar ldMacTest.host[13].mac 	sentPkCount:count 	953881
attr interpolationmode  node
attr source  sentPkCount
attr title  "pkCount, count"
scalar ldMacTest.host[13].mac 	discardPkCount:count 	0
attr interpolationmode  node
attr source  discardPkCount
attr title  "discardPkCount, count"
scalar ldMacTest.host[13].mac 	queueTime:mean 	0.16208507731926
attr source  queueTime
attr title  "queueTime, mean"
scalar ldMacTest.host[14].app 	errorCount:count 	0
attr interpolationmode  node
attr source  errorCount
attr title  "errorCount, count"
scalar ldMacTest.host[14].app 	appPkCount:count 	951272
attr interpolationmode  node
attr source  appPkCount
attr title  "appPkCount, count"
scalar ldMacTest.host[14].mac 	time10:count 	7694
attr source  time10
attr title  "time10, count"
scalar ldMacTest.host[14].mac 	time9:count 	8278
attr source  time9
attr title  "time9, count"
scalar ldMacTest.host[14].mac 	time8:count 	7490
attr source  time8
attr title  "time8, count"
scalar ldMacTest.host[14].mac 	time7:count 	14705
attr source  time7
attr title  "time7, count"
scalar ldMacTest.host[14].mac 	time6:count 	12236
attr source  time6
attr title  "time6, count"
scalar ldMacTest.host[14].mac 	time5:count 	0
attr source  time5
attr title  "time5, count"
scalar ldMacTest.host[14].mac 	time4:count 	0
attr source  time4
attr title  "time4, count"
scalar ldMacTest.host[14].mac 	time3:count 	0
attr source  time3
attr title  "time3, count"
scalar ldMacTest.host[14].mac 	time2:count 	0
attr source  time2
attr title  "time2, count"
scalar ldMacTest.host[14].mac 	time1:count 	0
attr source  time1
attr title  "time1, count"
scalar ldMacTest.host[14].mac 	time0:count 	50403
attr source  time0
attr title  "time0, count"
scalar ldMacTest.host[14].mac 	sentPkCount:count 	717412
attr interpolationmode  node
attr source  sentPkCount
attr title  "pkCount, count"
scalar ldMacTest.host[14].mac 	discardPkCount:count 	0
attr interpolationmode  node
attr source  discardPkCount
attr title  "discardPkCount, count"
scalar ldMacTest.host[14].mac 	queueTime:mean 	0.17958810545201
attr source  queueTime
attr title  "queueTime, mean"
scalar ldMacTest.host[15].app 	errorCount:count 	0
attr interpolationmode  node
attr source  errorCount
attr title  "errorCount, count"
scalar ldMacTest.host[15].app 	appPkCount:count 	928760
attr interpolationmode  node
attr source  appPkCount
attr title  "appPkCount, count"
scalar ldMacTest.host[15].mac 	time10:count 	0
attr source  time10
attr title  "time10, count"
scalar ldMacTest.host[15].mac 	time9:count 	0
attr source  time9
attr title  "time9, count"
scalar ldMacTest.host[15].mac 	time8:count 	2965
attr source  time8
attr title  "time8, count"
scalar ldMacTest.host[15].mac 	time7:count 	4295
attr source  time7
attr title  "time7, count"
scalar ldMacTest.host[15].mac 	time6:count 	7549
attr source  time6
attr title  "time6, count"
scalar ldMacTest.host[15].mac 	time5:count 	11889
attr source  time5
attr title  "time5, count"
scalar ldMacTest.host[15].mac 	time4:count 	12579
attr source  time4
attr title  "time4, count"
scalar ldMacTest.host[15].mac 	time3:count 	13452
attr source  time3
attr title  "time3, count"
scalar ldMacTest.host[15].mac 	time2:count 	13372
attr source  time2
attr title  "time2, count"
scalar ldMacTest.host[15].mac 	time1:count 	0
attr source  time1
attr title  "time1, count"
scalar ldMacTest.host[15].mac 	time0:count 	66101
attr source  time0
attr title  "time0, count"
scalar ldMacTest.host[15].mac 	sentPkCount:count 	928760
attr interpolationmode  node
attr source  sentPkCount
attr title  "pkCount, count"
scalar ldMacTest.host[15].mac 	discardPkCount:count 	0
attr interpolationmode  node
attr source  discardPkCount
attr title  "discardPkCount, count"
scalar ldMacTest.host[15].mac 	queueTime:mean 	0.14763428184876
attr source  queueTime
attr title  "queueTime, mean"
scalar ldMacTest.host[16].app 	errorCount:count 	0
attr interpolationmode  node
attr source  errorCount
attr title  "errorCount, count"
scalar ldMacTest.host[16].app 	appPkCount:count 	967439
attr interpolationmode  node
attr source  appPkCount
attr title  "appPkCount, count"
scalar ldMacTest.host[16].mac 	time10:count 	5358
attr source  time10
attr title  "time10, count"
scalar ldMacTest.host[16].mac 	time9:count 	5990
attr source  time9
attr title  "time9, count"
scalar ldMacTest.host[16].mac 	time8:count 	5844
attr source  time8
attr title  "time8, count"
scalar ldMacTest.host[16].mac 	time7:count 	5865
attr source  time7
attr title  "time7, count"
scalar ldMacTest.host[16].mac 	time6:count 	5843
attr source  time6
attr title  "time6, count"
scalar ldMacTest.host[16].mac 	time5:count 	5743
attr source  time5
attr title  "time5, count"
scalar ldMacTest.host[16].mac 	time4:count 	5945
attr source  time4
attr title  "time4, count"
scalar ldMacTest.host[16].mac 	time3:count 	5916
attr source  time3
attr title  "time3, count"
scalar ldMacTest.host[16].mac 	time2:count 	6508
attr source  time2
attr title  "time2, count"
scalar ldMacTest.host[16].mac 	time1:count 	10542
attr source  time1
attr title  "time1, count"
scalar ldMacTest.host[16].mac 	time0:count 	63554
attr source  time0
attr title  "time0, count"
scalar ldMacTest.host[16].mac 	sentPkCount:count 	936748
attr interpolationmode  node
attr source  sentPkCount
attr title  "pkCount, count"
scalar ldMacTest.host[16].mac 	discardPkCount:count 	0
attr interpolationmode  node
attr source  discardPkCount
attr title  "discardPkCount, count"
scalar ldMacTest.host[16].mac 	queueTime:mean 	0.16180750668497
attr source  queueTime
attr title  "queueTime, mean"
scalar ldMacTest.host[17].app 	errorCount:count 	0
attr interpolationmode  node
attr source  errorCount
attr title  "errorCount, count"
scalar ldMacTest.host[17].app 	appPkCount:count 	969480
attr interpolationmode  node
attr source  appPkCount
attr title  "appPkCount, count"
scalar ldMacTest.host[17].mac 	time10:count 	0
attr source  time10
attr title  "time10, count"
scalar ldMacTest.host[17].mac 	time9:count 	1080
attr source  time9
attr title  "time9, count"
scalar ldMacTest.host[17].mac 	time8:count 	3198
attr source  time8
attr title  "time8, count"
scalar ldMacTest.host[17].mac 	time7:count 	4500
attr source  time7
attr title  "time7, count"
scalar ldMacTest.host[17].mac 	time6:count 	9628
attr source  time6
attr title  "time6, count"
scalar ldMacTest.host[17].mac 	time5:count 	10067
attr source  time5
attr title  "time5, count"
scalar ldMacTest.host[17].mac 	time4:count 	11670
attr source  time4
attr title  "time4, count"
scalar ldMacTest.host[17].mac 	time3:count 	14254
attr source  time3
attr title  "time3, count"
scalar ldMacTest.host[17].mac 	time2:count 	8520
attr source  time2
attr title  "time2, count"
scalar ldMacTest.host[17].mac 	time1:count 	2884
attr source  time1
attr title  "time1, count"
scalar ldMacTest.host[17].mac 	time0:count 	65801
attr source  time0
attr title  "time0, count"
scalar ldMacTest.host[17].mac 	sentPkCount:count 	969480
attr interpolationmode  node
attr source  sentPkCount
attr title  "pkCount, count"
scalar ldMacTest.host[17].mac 	discardPkCount:count 	0
attr interpolationmode  node
attr source  discardPkCount
attr title  "discardPkCount, count"
scalar ldMacTest.host[17].mac 	queueTime:mean 	0.1505346534972
attr source  queueTime
attr title  "queueTime, mean"
scalar ldMacTest.host[18].app 	errorCount:count 	0
attr interpolationmode  node
attr source  errorCount
attr title  "errorCount, count"
scalar ldMacTest.host[18].app 	appPkCount:count 	954854
attr interpolationmode  node
attr source  appPkCount
attr title  "appPkCount, count"
scalar ldMacTest.host[18].mac 	time10:count 	5962
attr source  time10
attr title  "time10, count"
scalar ldMacTest.host[18].mac 	time9:count 	8484
attr source  time9
attr title  "time9, count"
scalar ldMacTest.host[18].mac 	time8:count 	9578
attr source  time8
attr title  "time8, count"
scalar ldMacTest.host[18].mac 	time7:count 	11183
attr source  time7
attr title  "time7, count"
scalar ldMacTest.host[18].mac 	time6:count 	12544
attr source  time6
attr title  "time6, count"
scalar ldMacTest.host[18].mac 	time5:count 	0
attr source  time5
attr title  "time5, count"
scalar ldMacTest.host[18].mac 	time4:count 	0
attr source  time4
attr title  "time4, count"
scalar ldMacTest.host[18].mac 	time3:count 	0
attr source  time3
attr title  "time3, count"
scalar ldMacTest.host[18].mac 	time2:count 	0
attr source  time2
attr title  "time2, count"
scalar ldMacTest.host[18].mac 	time1:count 	0
attr source  time1
attr title  "time1, count"
scalar ldMacTest.host[18].mac 	time0:count 	47751
attr source  time0
attr title  "time0, count"
scalar ldMacTest.host[18].mac 	sentPkCount:count 	689842
attr interpolationmode  node
attr source  sentPkCount
attr title  "pkCount, count"
scalar ldMacTest.host[18].mac 	discardPkCount:count 	0
attr interpolationmode  node
attr source  discardPkCount
attr title  "discardPkCount, count"
scalar ldMacTest.host[18].mac 	queueTime:mean 	0.18791181979085
attr source  queueTime
attr title  "queueTime, mean"
scalar ldMacTest.host[19].app 	errorCount:count 	0
attr interpolationmode  node
attr source  errorCount
attr title  "errorCount, count"
scalar ldMacTest.host[19].app 	appPkCount:count 	969755
attr interpolationmode  node
attr source  appPkCount
attr title  "appPkCount, count"
scalar ldMacTest.host[19].mac 	time10:count 	32284
attr source  time10
attr title  "time10, count"
scalar ldMacTest.host[19].mac 	time9:count 	12683
attr source  time9
attr title  "time9, count"
scalar ldMacTest.host[19].mac 	time8:count 	0
attr source  time8
attr title  "time8, count"
scalar ldMacTest.host[19].mac 	time7:count 	0
attr source  time7
attr title  "time7, count"
scalar ldMacTest.host[19].mac 	time6:count 	0
attr source  time6
attr title  "time6, count"
scalar ldMacTest.host[19].mac 	time5:count 	0
attr source  time5
attr title  "time5, count"
scalar ldMacTest.host[19].mac 	time4:count 	0
attr source  time4
attr title  "time4, count"
scalar ldMacTest.host[19].mac 	time3:count 	0
attr source  time3
attr title  "time3, count"
scalar ldMacTest.host[19].mac 	time2:count 	0
attr source  time2
attr title  "time2, count"
scalar ldMacTest.host[19].mac 	time1:count 	0
attr source  time1
attr title  "time1, count"
scalar ldMacTest.host[19].mac 	time0:count 	44967
attr source  time0
attr title  "time0, count"
scalar ldMacTest.host[19].mac 	sentPkCount:count 	667314
attr interpolationmode  node
attr source  sentPkCount
attr title  "pkCount, count"
scalar ldMacTest.host[19].mac 	discardPkCount:count 	0
attr interpolationmode  node
attr source  discardPkCount
attr title  "discardPkCount, count"
scalar ldMacTest.host[19].mac 	queueTime:mean 	0.20837632052944
attr source  queueTime
attr title  "queueTime, mean"
scalar ldMacTest.host[20].app 	errorCount:count 	0
attr interpolationmode  node
attr source  errorCount
attr title  "errorCount, count"
scalar ldMacTest.host[20].app 	appPkCount:count 	945053
attr interpolationmode  node
attr source  appPkCount
attr title  "appPkCount, count"
scalar ldMacTest.host[20].mac 	time10:count 	0
attr source  time10
attr title  "time10, count"
scalar ldMacTest.host[20].mac 	time9:count 	624
attr source  time9
attr title  "time9, count"
scalar ldMacTest.host[20].mac 	time8:count 	14626
attr source  time8
attr title  "time8, count"
scalar ldMacTest.host[20].mac 	time7:count 	9548
attr source  time7
attr title  "time7, count"
scalar ldMacTest.host[20].mac 	time6:count 	10067
attr source  time6
attr title  "time6, count"
scalar ldMacTest.host[20].mac 	time5:count 	11242
attr source  time5
attr title  "time5, count"
scalar ldMacTest.host[20].mac 	time4:count 	15936
attr source  time4
attr title  "time4, count"
scalar ldMacTest.host[20].mac 	time3:count 	3474
attr source  time3
attr title  "time3, count"
scalar ldMacTest.host[20].mac 	time2:count 	487
attr source  time2
attr title  "time2, count"
scalar ldMacTest.host[20].mac 	time1:count 	0
attr source  time1
attr title  "time1, count"
scalar ldMacTest.host[20].mac 	time0:count 	66004
attr source  time0
attr title  "time0, count"
scalar ldMacTest.host[20].mac 	sentPkCount:count 	945053
attr interpolationmode  node
attr source  sentPkCount
attr title  "pkCount, count"
scalar ldMacTest.host[20].mac 	discardPkCount:count 	0
attr interpolationmode  node
attr source  discardPkCount
attr title  "discardPkCount, count"
scalar ldMacTest.host[20].mac 	queueTime:mean 	0.16064627455734
attr source  queueTime
attr title  "queueTime, mean"
scalar ldMacTest.host[21].app 	errorCount:count 	0
attr interpolationmode  node
attr source  errorCount
attr title  "errorCount, count"
scalar ldMacTest.host[21].app 	appPkCount:count 	944514
attr interpolationmode  node
attr source  appPkCount
attr title  "appPkCount, count"
scalar ldMacTest.host[21].mac 	time10:count 	3762
attr source  time10
attr title  "time10, count"
scalar ldMacTest.host[21].mac 	time9:count 	6864
attr source  time9
attr title  "time9, count"
scalar ldMacTest.host[21].mac 	time8:count 	11767
attr source  time8
attr title  "time8, count"
scalar ldMacTest.host[21].mac 	time7:count 	11689
attr source  time7
attr title  "time7, count"
scalar ldMacTest.host[21].mac 	time6:count 	7838
attr source  time6
attr title  "time6, count"
scalar ldMacTest.host[21].mac 	time5:count 	9314
attr source  time5
attr title  "time5, count"
scalar ldMacTest.host[21].mac 	time4:count 	7300
attr source  time4
attr title  "time4, count"
scalar ldMacTest.host[21].mac 	time3:count 	0
attr source  time3
attr title  "time3, count"
scalar ldMacTest.host[21].mac 	time2:count 	0
attr source  time2
attr title  "time2, count"
scalar ldMacTest.host[21].mac 	time1:count 	0
attr source  time1
attr title  "time1, count"
scalar ldMacTest.host[21].mac 	time0:count 	58534
attr source  time0
attr title  "time0, count"
scalar ldMacTest.host[21].mac 	sentPkCount:count 	837993
attr interpolationmode  node
attr source  sentPkCount
attr title  "pkCount, count"
scalar ldMacTest.host[21].mac 	discardPkCount:count 	0
attr interpolationmode  node
attr source  discardPkCount
attr title  "discardPkCount, count"
scalar ldMacTest.host[21].mac 	queueTime:mean 	0.17981712865179
attr source  queueTime
attr title  "queueTime, mean"
scalar ldMacTest.host[22].app 	errorCount:count 	0
attr interpolationmode  node
attr source  errorCount
attr title  "errorCount, count"
scalar ldMacTest.host[22].app 	appPkCount:count 	952459
attr interpolationmode  node
attr source  appPkCount
attr title  "appPkCount, count"
scalar ldMacTest.host[22].mac 	time10:count 	4064
attr source  time10
attr title  "time10, count"
scalar ldMacTest.host[22].mac 	time9:count 	4254
attr source  time9
attr title  "time9, count"
scalar ldMacTest.host[22].mac 	time8:count 	14053
attr source  time8
attr title  "time8, count"
scalar ldMacTest.host[22].mac 	time7:count 	35223
attr source  time7
attr title  "time7, count"
scalar ldMacTest.host[22].mac 	time6:count 	8069
attr source  time6
attr title  "time6, count"
scalar ldMacTest.host[22].mac 	time5:count 	0
attr source  time5
attr title  "time5, count"
scalar ldMacTest.host[22].mac 	time4:count 	0
attr source  time4
attr title  "time4, count"
scalar ldMacTest.host[22].mac 	time3:count 	0
attr source  time3
attr title  "time3, count"
scalar ldMacTest.host[22].mac 	time2:count 	0
attr source  time2
attr title  "time2, count"
scalar ldMacTest.host[22].mac 	time1:count 	0
attr source  time1
attr title  "time1, count"
scalar ldMacTest.host[22].mac 	time0:count 	65663
attr source  time0
attr title  "time0, count"
scalar ldMacTest.host[22].mac 	sentPkCount:count 	951194
attr interpolationmode  node
attr source  sentPkCount
attr title  "pkCount, count"
scalar ldMacTest.host[22].mac 	discardPkCount:count 	0
attr interpolationmode  node
attr source  discardPkCount
attr title  "discardPkCount, count"
scalar ldMacTest.host[22].mac 	queueTime:mean 	0.18301754829847
attr source  queueTime
attr title  "queueTime, mean"
scalar ldMacTest.host[23].app 	errorCount:count 	0
attr interpolationmode  node
attr source  errorCount
attr title  "errorCount, count"
scalar ldMacTest.host[23].app 	appPkCount:count 	957200
attr interpolationmode  node
attr source  appPkCount
attr title  "appPkCount, count"
scalar ldMacTest.host[23].mac 	time10:count 	7601
attr source  time10
attr title  "time10, count"
scalar ldMacTest.host[23].mac 	time9:count 	8272
attr source  time9
attr title  "time9, count"
scalar ldMacTest.host[23].mac 	time8:count 	9160
attr source  time8
attr title  "time8, count"
scalar ldMacTest.host[23].mac 	time7:count 	24319
attr source  time7
attr title  "time7, count"
scalar ldMacTest.host[23].mac 	time6:count 	9930
attr source  time6
attr title  "time6, count"
scalar ldMacTest.host[23].mac 	time5:count 	1751
attr source  time5
attr title  "time5, count"
scalar ldMacTest.host[23].mac 	time4:count 	0
attr source  time4
attr title  "time4, count"
scalar ldMacTest.host[23].mac 	time3:count 	0
attr source  time3
attr title  "time3, count"
scalar ldMacTest.host[23].mac 	time2:count 	0
attr source  time2
attr title  "time2, count"
scalar ldMacTest.host[23].mac 	time1:count 	0
attr source  time1
attr title  "time1, count"
scalar ldMacTest.host[23].mac 	time0:count 	61033
attr source  time0
attr title  "time0, count"
scalar ldMacTest.host[23].mac 	sentPkCount:count 	888139
attr interpolationmode  node
attr source  sentPkCount
attr title  "pkCount, count"
scalar ldMacTest.host[23].mac 	discardPkCount:count 	0
attr interpolationmode  node
attr source  discardPkCount
attr title  "discardPkCount, count"
scalar ldMacTest.host[23].mac 	queueTime:mean 	0.18461894670063
attr source  queueTime
attr title  "queueTime, mean"
scalar ldMacTest.host[24].app 	errorCount:count 	0
attr interpolationmode  node
attr source  errorCount
attr title  "errorCount, count"
scalar ldMacTest.host[24].app 	appPkCount:count 	969701
attr interpolationmode  node
attr source  appPkCount
attr title  "appPkCount, count"
scalar ldMacTest.host[24].mac 	time10:count 	10428
attr source  time10
attr title  "time10, count"
scalar ldMacTest.host[24].mac 	time9:count 	12421
attr source  time9
attr title  "time9, count"
scalar ldMacTest.host[24].mac 	time8:count 	13446
attr source  time8
attr title  "time8, count"
scalar ldMacTest.host[24].mac 	time7:count 	15232
attr source  time7
attr title  "time7, count"
scalar ldMacTest.host[24].mac 	time6:count 	13058
attr source  time6
attr title  "time6, count"
scalar ldMacTest.host[24].mac 	time5:count 	0
attr source  time5
attr title  "time5, count"
scalar ldMacTest.host[24].mac 	time4:count 	0
attr source  time4
attr title  "time4, count"
scalar ldMacTest.host[24].mac 	time3:count 	0
attr source  time3
attr title  "time3, count"
scalar ldMacTest.host[24].mac 	time2:count 	0
attr source  time2
attr title  "time2, count"
scalar ldMacTest.host[24].mac 	time1:count 	0
attr source  time1
attr title  "time1, count"
scalar ldMacTest.host[24].mac 	time0:count 	64585
attr source  time0
attr title  "time0, count"
scalar ldMacTest.host[24].mac 	sentPkCount:count 	953924
attr interpolationmode  node
attr source  sentPkCount
attr title  "pkCount, count"
scalar ldMacTest.host[24].mac 	discardPkCount:count 	0
attr interpolationmode  node
attr source  discardPkCount
attr title  "discardPkCount, count"
scalar ldMacTest.host[24].mac 	queueTime:mean 	0.1875734045205
attr source  queueTime
attr title  "queueTime, mean"
scalar ldMacTest.host[25].app 	errorCount:count 	0
attr interpolationmode  node
attr source  errorCount
attr title  "errorCount, count"
scalar ldMacTest.host[25].app 	appPkCount:count 	971305
attr interpolationmode  node
attr source  appPkCount
attr title  "appPkCount, count"
scalar ldMacTest.host[25].mac 	time10:count 	3432
attr source  time10
attr title  "time10, count"
scalar ldMacTest.host[25].mac 	time9:count 	4334
attr source  time9
attr title  "time9, count"
scalar ldMacTest.host[25].mac 	time8:count 	7209
attr source  time8
attr title  "time8, count"
scalar ldMacTest.host[25].mac 	time7:count 	7363
attr source  time7
attr title  "time7, count"
scalar ldMacTest.host[25].mac 	time6:count 	8258
attr source  time6
attr title  "time6, count"
scalar ldMacTest.host[25].mac 	time5:count 	10742
attr source  time5
attr title  "time5, count"
scalar ldMacTest.host[25].mac 	time4:count 	10809
attr source  time4
attr title  "time4, count"
scalar ldMacTest.host[25].mac 	time3:count 	0
attr source  time3
attr title  "time3, count"
scalar ldMacTest.host[25].mac 	time2:count 	0
attr source  time2
attr title  "time2, count"
scalar ldMacTest.host[25].mac 	time1:count 	0
attr source  time1
attr title  "time1, count"
scalar ldMacTest.host[25].mac 	time0:count 	52147
attr source  time0
attr title  "time0, count"
scalar ldMacTest.host[25].mac 	sentPkCount:count 	770876
attr interpolationmode  node
attr source  sentPkCount
attr title  "pkCount, count"
scalar ldMacTest.host[25].mac 	discardPkCount:count 	0
attr interpolationmode  node
attr source  discardPkCount
attr title  "discardPkCount, count"
scalar ldMacTest.host[25].mac 	queueTime:mean 	0.17860431443949
attr source  queueTime
attr title  "queueTime, mean"
scalar ldMacTest.host[26].app 	errorCount:count 	0
attr interpolationmode  node
attr source  errorCount
attr title  "errorCount, count"
scalar ldMacTest.host[26].app 	appPkCount:count 	941220
attr interpolationmode  node
attr source  appPkCount
attr title  "appPkCount, count"
scalar ldMacTest.host[26].mac 	time10:count 	0
attr source  time10
attr title  "time10, count"
scalar ldMacTest.host[26].mac 	time9:count 	629
attr source  time9
attr title  "time9, count"
scalar ldMacTest.host[26].mac 	time8:count 	4051
attr source  time8
attr title  "time8, count"
scalar ldMacTest.host[26].mac 	time7:count 	10985
attr source  time7
attr title  "time7, count"
scalar ldMacTest.host[26].mac 	time6:count 	15203
attr source  time6
attr title  "time6, count"
scalar ldMacTest.host[26].mac 	time5:count 	17501
attr source  time5
attr title  "time5, count"
scalar ldMacTest.host[26].mac 	time4:count 	7963
attr source  time4
attr title  "time4, count"
scalar ldMacTest.host[26].mac 	time3:count 	9706
attr source  time3
attr title  "time3, count"
scalar ldMacTest.host[26].mac 	time2:count 	0
attr source  time2
attr title  "time2, count"
scalar ldMacTest.host[26].mac 	time1:count 	0
attr source  time1
attr title  "time1, count"
scalar ldMacTest.host[26].mac 	time0:count 	66038
attr source  time0
attr title  "time0, count"
scalar ldMacTest.host[26].mac 	sentPkCount:count 	941220
attr interpolationmode  node
attr source  sentPkCount
attr title  "pkCount, count"
scalar ldMacTest.host[26].mac 	discardPkCount:count 	0
attr interpolationmode  node
attr source  discardPkCount
attr title  "discardPkCount, count"
scalar ldMacTest.host[26].mac 	queueTime:mean 	0.16099899205546
attr source  queueTime
attr title  "queueTime, mean"
scalar ldMacTest.host[27].app 	errorCount:count 	0
attr interpolationmode  node
attr source  errorCount
attr title  "errorCount, count"
scalar ldMacTest.host[27].app 	appPkCount:count 	958780
attr interpolationmode  node
attr source  appPkCount
attr title  "appPkCount, count"
scalar ldMacTest.host[27].mac 	time10:count 	3870
attr source  time10
attr title  "time10, count"
scalar ldMacTest.host[27].mac 	time9:count 	3888
attr source  time9
attr title  "time9, count"
scalar ldMacTest.host[27].mac 	time8:count 	4594
attr source  time8
attr title  "time8, count"
scalar ldMacTest.host[27].mac 	time7:count 	9843
attr source  time7
attr title  "time7, count"
scalar ldMacTest.host[27].mac 	time6:count 	19503
attr source  time6
attr title  "time6, count"
scalar ldMacTest.host[27].mac 	time5:count 	12684
attr source  time5
attr title  "time5, count"
scalar ldMacTest.host[27].mac 	time4:count 	3144
attr source  time4
attr title  "time4, count"
scalar ldMacTest.host[27].mac 	time3:count 	2421
attr source  time3
attr title  "time3, count"
scalar ldMacTest.host[27].mac 	time2:count 	0
attr source  time2
attr title  "time2, count"
scalar ldMacTest.host[27].mac 	time1:count 	0
attr source  time1
attr title  "time1, count"
scalar ldMacTest.host[27].mac 	time0:count 	59947
attr source  time0
attr title  "time0, count"
scalar ldMacTest.host[27].mac 	sentPkCount:count 	874438
attr interpolationmode  node
attr source  sentPkCount
attr title  "pkCount, count"
scalar ldMacTest.host[27].mac 	discardPkCount:count 	0
attr interpolationmode  node
attr source  discardPkCount
attr title  "discardPkCount, count"
scalar ldMacTest.host[27].mac 	queueTime:mean 	0.18396401585979
attr source  queueTime
attr title  "queueTime, mean"
scalar ldMacTest.host[28].app 	errorCount:count 	0
attr interpolationmode  node
attr source  errorCount
attr title  "errorCount, count"
scalar ldMacTest.host[28].app 	appPkCount:count 	939635
attr interpolationmode  node
attr source  appPkCount
attr title  "appPkCount, count"
scalar ldMacTest.host[28].mac 	time10:count 	10706
attr source  time10
attr title  "time10, count"
scalar ldMacTest.host[28].mac 	time9:count 	6087
attr source  time9
attr title  "time9, count"
scalar ldMacTest.host[28].mac 	time8:count 	6091
attr source  time8
attr title  "time8, count"
scalar ldMacTest.host[28].mac 	time7:count 	5677
attr source  time7
attr title  "time7, count"
scalar ldMacTest.host[28].mac 	time6:count 	5962
attr source  time6
attr title  "time6, count"
scalar ldMacTest.host[28].mac 	time5:count 	6199
attr source  time5
attr title  "time5, count"
scalar ldMacTest.host[28].mac 	time4:count 	6786
attr source  time4
attr title  "time4, count"
scalar ldMacTest.host[28].mac 	time3:count 	12503
attr source  time3
attr title  "time3, count"
scalar ldMacTest.host[28].mac 	time2:count 	0
attr source  time2
attr title  "time2, count"
scalar ldMacTest.host[28].mac 	time1:count 	0
attr source  time1
attr title  "time1, count"
scalar ldMacTest.host[28].mac 	time0:count 	60011
attr source  time0
attr title  "time0, count"
scalar ldMacTest.host[28].mac 	sentPkCount:count 	852873
attr interpolationmode  node
attr source  sentPkCount
attr title  "pkCount, count"
scalar ldMacTest.host[28].mac 	discardPkCount:count 	0
attr interpolationmode  node
attr source  discardPkCount
attr title  "discardPkCount, count"
scalar ldMacTest.host[28].mac 	queueTime:mean 	0.17576336351993
attr source  queueTime
attr title  "queueTime, mean"
scalar ldMacTest.host[29].app 	errorCount:count 	0
attr interpolationmode  node
attr source  errorCount
attr title  "errorCount, count"
scalar ldMacTest.host[29].app 	appPkCount:count 	961278
attr interpolationmode  node
attr source  appPkCount
attr title  "appPkCount, count"
scalar ldMacTest.host[29].mac 	time10:count 	0
attr source  time10
attr title  "time10, count"
scalar ldMacTest.host[29].mac 	time9:count 	5616
attr source  time9
attr title  "time9, count"
scalar ldMacTest.host[29].mac 	time8:count 	6928
attr source  time8
attr title  "time8, count"
scalar ldMacTest.host[29].mac 	time7:count 	7958
attr source  time7
attr title  "time7, count"
scalar ldMacTest.host[29].mac 	time6:count 	23708
attr source  time6
attr title  "time6, count"
scalar ldMacTest.host[29].mac 	time5:count 	16881
attr source  time5
attr title  "time5, count"
scalar ldMacTest.host[29].mac 	time4:count 	4477
attr source  time4
attr title  "time4, count"
scalar ldMacTest.host[29].mac 	time3:count 	240
attr source  time3
attr title  "time3, count"
scalar ldMacTest.host[29].mac 	time2:count 	0
attr source  time2
attr title  "time2, count"
scalar ldMacTest.host[29].mac 	time1:count 	0
attr source  time1
attr title  "time1, count"
scalar ldMacTest.host[29].mac 	time0:count 	65808
attr source  time0
attr title  "time0, count"
scalar ldMacTest.host[29].mac 	sentPkCount:count 	961278
attr interpolationmode  node
attr source  sentPkCount
attr title  "pkCount, count"
scalar ldMacTest.host[29].mac 	discardPkCount:count 	0
attr interpolationmode  node
attr source  discardPkCount
attr title  "discardPkCount, count"
scalar ldMacTest.host[29].mac 	queueTime:mean 	0.17714845038824
attr source  queueTime
attr title  "queueTime, mean"
scalar ldMacTest.host[30].app 	errorCount:count 	0
attr interpolationmode  node
attr source  errorCount
attr title  "errorCount, count"
scalar ldMacTest.host[30].app 	appPkCount:count 	959690
attr interpolationmode  node
attr source  appPkCount
attr title  "appPkCount, count"
scalar ldMacTest.host[30].mac 	time10:count 	3137
attr source  time10
attr title  "time10, count"
scalar ldMacTest.host[30].mac 	time9:count 	3549
attr source  time9
attr title  "time9, count"
scalar ldMacTest.host[30].mac 	time8:count 	11273
attr source  time8
attr title  "time8, count"
scalar ldMacTest.host[30].mac 	time7:count 	15423
attr source  time7
attr title  "time7, count"
scalar ldMacTest.host[30].mac 	time6:count 	16701
attr source  time6
attr title  "time6, count"
scalar ldMacTest.host[30].mac 	time5:count 	15874
attr source  time5
attr title  "time5, count"
scalar ldMacTest.host[30].mac 	time4:count 	0
attr source  time4
attr title  "time4, count"
scalar ldMacTest.host[30].mac 	time3:count 	0
attr source  time3
attr title  "time3, count"
scalar ldMacTest.host[30].mac 	time2:count 	0
attr source  time2
attr title  "time2, count"
scalar ldMacTest.host[30].mac 	time1:count 	0
attr source  time1
attr title  "time1, count"
scalar ldMacTest.host[30].mac 	time0:count 	65957
attr source  time0
attr title  "time0, count"
scalar ldMacTest.host[30].mac 	sentPkCount:count 	959690
attr interpolationmode  node
attr source  sentPkCount
attr title  "pkCount, count"
scalar ldMacTest.host[30].mac 	discardPkCount:count 	0
attr interpolationmode  node
attr source  discardPkCount
attr title  "discardPkCount, count"
scalar ldMacTest.host[30].mac 	queueTime:mean 	0.17294977596944
attr source  queueTime
attr title  "queueTime, mean"
scalar ldMacTest.host[31].app 	errorCount:count 	0
attr interpolationmode  node
attr source  errorCount
attr title  "errorCount, count"
scalar ldMacTest.host[31].app 	appPkCount:count 	949825
attr interpolationmode  node
attr source  appPkCount
attr title  "appPkCount, count"
scalar ldMacTest.host[31].mac 	time10:count 	5585
attr source  time10
attr title  "time10, count"
scalar ldMacTest.host[31].mac 	time9:count 	5489
attr source  time9
attr title  "time9, count"
scalar ldMacTest.host[31].mac 	time8:count 	5550
attr source  time8
attr title  "time8, count"
scalar ldMacTest.host[31].mac 	time7:count 	5586
attr source  time7
attr title  "time7, count"
scalar ldMacTest.host[31].mac 	time6:count 	5651
attr source  time6
attr title  "time6, count"
scalar ldMacTest.host[31].mac 	time5:count 	5599
attr source  time5
attr title  "time5, count"
scalar ldMacTest.host[31].mac 	time4:count 	5697
attr source  time4
attr title  "time4, count"
scalar ldMacTest.host[31].mac 	time3:count 	5737
attr source  time3
attr title  "time3, count"
scalar ldMacTest.host[31].mac 	time2:count 	5885
attr source  time2
attr title  "time2, count"
scalar ldMacTest.host[31].mac 	time1:count 	4906
attr source  time1
attr title  "time1, count"
scalar ldMacTest.host[31].mac 	time0:count 	55685
attr source  time0
attr title  "time0, count"
scalar ldMacTest.host[31].mac 	sentPkCount:count 	806661
attr interpolationmode  node
attr source  sentPkCount
attr title  "pkCount, count"
scalar ldMacTest.host[31].mac 	discardPkCount:count 	0
attr interpolationmode  node
attr source  discardPkCount
attr title  "discardPkCount, count"
scalar ldMacTest.host[31].mac 	queueTime:mean 	0.18089173472607
attr source  queueTime
attr title  "queueTime, mean"
scalar ldMacTest.host[32].app 	errorCount:count 	0
attr interpolationmode  node
attr source  errorCount
attr title  "errorCount, count"
scalar ldMacTest.host[32].app 	appPkCount:count 	972956
attr interpolationmode  node
attr source  appPkCount
attr title  "appPkCount, count"
scalar ldMacTest.host[32].mac 	time10:count 	7475
attr source  time10
attr title  "time10, count"
scalar ldMacTest.host[32].mac 	time9:count 	8056
attr source  time9
attr title  "time9, count"
scalar ldMacTest.host[32].mac 	time8:count 	9232
attr source  time8
attr title  "time8, count"
scalar ldMacTest.host[32].mac 	time7:count 	11010
attr source  time7
attr title  "time7, count"
scalar ldMacTest.host[32].mac 	time6:count 	3707
attr source  time6
attr title  "time6, count"
scalar ldMacTest.host[32].mac 	time5:count 	4383
attr source  time5
attr title  "time5, count"
scalar ldMacTest.host[32].mac 	time4:count 	5438
attr source  time4
attr title  "time4, count"
scalar ldMacTest.host[32].mac 	time3:count 	0
attr source  time3
attr title  "time3, count"
scalar ldMacTest.host[32].mac 	time2:count 	0
attr source  time2
attr title  "time2, count"
scalar ldMacTest.host[32].mac 	time1:count 	0
attr source  time1
attr title  "time1, count"
scalar ldMacTest.host[32].mac 	time0:count 	49301
attr source  time0
attr title  "time0, count"
scalar ldMacTest.host[32].mac 	sentPkCount:count 	732080
attr interpolationmode  node
attr source  sentPkCount
attr title  "pkCount, count"
scalar ldMacTest.host[32].mac 	discardPkCount:count 	0
attr interpolationmode  node
attr source  discardPkCount
attr title  "discardPkCount, count"
scalar ldMacTest.host[32].mac 	queueTime:mean 	0.17504104399844
attr source  queueTime
attr title  "queueTime, mean"
scalar ldMacTest.host[33].app 	errorCount:count 	0
attr interpolationmode  node
attr source  errorCount
attr title  "errorCount, count"
scalar ldMacTest.host[33].app 	appPkCount:count 	974389
attr interpolationmode  node
attr source  appPkCount
attr title  "appPkCount, count"
scalar ldMacTest.host[33].mac 	time10:count 	19613
attr source  time10
attr title  "time10, count"
scalar ldMacTest.host[33].mac 	time9:count 	3325
attr source  time9
attr title  "time9, count"
scalar ldMacTest.host[33].mac 	time8:count 	3595
attr source  time8
attr title  "time8, count"
scalar ldMacTest.host[33].mac 	time7:count 	5112
attr source  time7
attr title  "time7, count"
scalar ldMacTest.host[33].mac 	time6:count 	15928
attr source  time6
attr title  "time6, count"
scalar ldMacTest.host[33].mac 	time5:count 	18278
attr source  time5
attr title  "time5, count"
scalar ldMacTest.host[33].mac 	time4:count 	0
attr source  time4
attr title  "time4, count"
scalar ldMacTest.host[33].mac 	time3:count 	0
attr source  time3
attr title  "time3, count"
scalar ldMacTest.host[33].mac 	time2:count 	0
attr source  time2
attr title  "time2, count"
scalar ldMacTest.host[33].mac 	time1:count 	0
attr source  time1
attr title  "time1, count"
scalar ldMacTest.host[33].mac 	time0:count 	65851
attr source  time0
attr title  "time0, count"
scalar ldMacTest.host[33].mac 	sentPkCount:count 	974389
attr interpolationmode  node
attr source  sentPkCount
attr title  "pkCount, count"
scalar ldMacTest.host[33].mac 	discardPkCount:count 	0
attr interpolationmode  node
attr source  discardPkCount
attr title  "discardPkCount, count"
scalar ldMacTest.host[33].mac 	queueTime:mean 	0.17564672923902
attr source  queueTime
attr title  "queueTime, mean"
scalar ldMacTest.host[34].app 	errorCount:count 	0
attr interpolationmode  node
attr source  errorCount
attr title  "errorCount, count"
scalar ldMacTest.host[34].app 	appPkCount:count 	953742
attr interpolationmode  node
attr source  appPkCount
attr title  "appPkCount, count"
scalar ldMacTest.host[34].mac 	time10:count 	8951
attr source  time10
attr title  "time10, count"
scalar ldMacTest.host[34].mac 	time9:count 	13673
attr source  time9
attr title  "time9, count"
scalar ldMacTest.host[34].mac 	time8:count 	3721
attr source  time8
attr title  "time8, count"
scalar ldMacTest.host[34].mac 	time7:count 	3921
attr source  time7
attr title  "time7, count"
scalar ldMacTest.host[34].mac 	time6:count 	5160
attr source  time6
attr title  "time6, count"
scalar ldMacTest.host[34].mac 	time5:count 	17087
attr source  time5
attr title  "time5, count"
scalar ldMacTest.host[34].mac 	time4:count 	0
attr source  time4
attr title  "time4, count"
scalar ldMacTest.host[34].mac 	time3:count 	0
attr source  time3
attr title  "time3, count"
scalar ldMacTest.host[34].mac 	time2:count 	0
attr source  time2
attr title  "time2, count"
scalar ldMacTest.host[34].mac 	time1:count 	0
attr source  time1
attr title  "time1, count"
scalar ldMacTest.host[34].mac 	time0:count 	52513
attr source  time0
attr title  "time0, count"
scalar ldMacTest.host[34].mac 	sentPkCount:count 	774928
attr interpolationmode  node
attr source  sentPkCount
attr title  "pkCount, count"
scalar ldMacTest.host[34].mac 	discardPkCount:count 	0
attr interpolationmode  node
attr source  discardPkCount
attr title  "discardPkCount, count"
scalar ldMacTest.host[34].mac 	queueTime:mean 	0.18343795202787
attr source  queueTime
attr title  "queueTime, mean"
scalar ldMacTest.host[35].app 	errorCount:count 	0
attr interpolationmode  node
attr source  errorCount
attr title  "errorCount, count"
scalar ldMacTest.host[35].app 	appPkCount:count 	967082
attr interpolationmode  node
attr source  appPkCount
attr title  "appPkCount, count"
scalar ldMacTest.host[35].mac 	time10:count 	7800
attr source  time10
attr title  "time10, count"
scalar ldMacTest.host[35].mac 	time9:count 	9434
attr source  time9
attr title  "time9, count"
scalar ldMacTest.host[35].mac 	time8:count 	9146
attr source  time8
attr title  "time8, count"
scalar ldMacTest.host[35].mac 	time7:count 	6717
attr source  time7
attr title  "time7, count"
scalar ldMacTest.host[35].mac 	time6:count 	7266
attr source  time6
attr title  "time6, count"
scalar ldMacTest.host[35].mac 	time5:count 	9136
attr source  time5
attr title  "time5, count"
scalar ldMacTest.host[35].mac 	time4:count 	10693
attr source  time4
attr title  "time4, count"
scalar ldMacTest.host[35].mac 	time3:count 	0
attr source  time3
attr title  "time3, count"
scalar ldMacTest.host[35].mac 	time2:count 	0
attr source  time2
attr title  "time2, count"
scalar ldMacTest.host[35].mac 	time1:count 	0
attr source  time1
attr title  "time1, count"
scalar ldMacTest.host[35].mac 	time0:count 	60192
attr source  time0
attr title  "time0, count"
scalar ldMacTest.host[35].mac 	sentPkCount:count 	885767
attr interpolationmode  node
attr source  sentPkCount
attr title  "pkCount, count"
scalar ldMacTest.host[35].mac 	discardPkCount:count 	0
attr interpolationmode  node
attr source  discardPkCount
attr title  "discardPkCount, count"
scalar ldMacTest.host[35].mac 	queueTime:mean 	0.1795450167114
attr source  queueTime
attr title  "queueTime, mean"
scalar ldMacTest.host[36].app 	errorCount:count 	0
attr interpolationmode  node
attr source  errorCount
attr title  "errorCount, count"
scalar ldMacTest.host[36].app 	appPkCount:count 	937057
attr interpolationmode  node
attr source  appPkCount
attr title  "appPkCount, count"
scalar ldMacTest.host[36].mac 	time10:count 	2978
attr source  time10
attr title  "time10, count"
scalar ldMacTest.host[36].mac 	time9:count 	5877
attr source  time9
attr title  "time9, count"
scalar ldMacTest.host[36].mac 	time8:count 	6447
attr source  time8
attr title  "time8, count"
scalar ldMacTest.host[36].mac 	time7:count 	6620
attr source  time7
attr title  "time7, count"
scalar ldMacTest.host[36].mac 	time6:count 	6736
attr source  time6
attr title  "time6, count"
scalar ldMacTest.host[36].mac 	time5:count 	6664
attr source  time5
attr title  "time5, count"
scalar ldMacTest.host[36].mac 	time4:count 	6665
attr source  time4
attr title  "time4, count"
scalar ldMacTest.host[36].mac 	time3:count 	6845
attr source  time3
attr title  "time3, count"
scalar ldMacTest.host[36].mac 	time2:count 	9205
attr source  time2
attr title  "time2, count"
scalar ldMacTest.host[36].mac 	time1:count 	2515
attr source  time1
attr title  "time1, count"
scalar ldMacTest.host[36].mac 	time0:count 	60552
attr source  time0
attr title  "time0, count"
scalar ldMacTest.host[36].mac 	sentPkCount:count 	861629
attr interpolationmode  node
attr source  sentPkCount
attr title  "pkCount, count"
scalar ldMacTest.host[36].mac 	discardPkCount:count 	0
attr interpolationmode  node
attr source  discardPkCount
attr title  "discardPkCount, count"
scalar ldMacTest.host[36].mac 	queueTime:mean 	0.16016969708496
attr source  queueTime
attr title  "queueTime, mean"
scalar ldMacTest.host[37].app 	errorCount:count 	0
attr interpolationmode  node
attr source  errorCount
attr title  "errorCount, count"
scalar ldMacTest.host[37].app 	appPkCount:count 	943470
attr interpolationmode  node
attr source  appPkCount
attr title  "appPkCount, count"
scalar ldMacTest.host[37].mac 	time10:count 	3259
attr source  time10
attr title  "time10, count"
scalar ldMacTest.host[37].mac 	time9:count 	3324
attr source  time9
attr title  "time9, count"
scalar ldMacTest.host[37].mac 	time8:count 	3350
attr source  time8
attr title  "time8, count"
scalar ldMacTest.host[37].mac 	time7:count 	3672
attr source  time7
attr title  "time7, count"
scalar ldMacTest.host[37].mac 	time6:count 	5505
attr source  time6
attr title  "time6, count"
scalar ldMacTest.host[37].mac 	time5:count 	10052
attr source  time5
attr title  "time5, count"
scalar ldMacTest.host[37].mac 	time4:count 	13499
attr source  time4
attr title  "time4, count"
scalar ldMacTest.host[37].mac 	time3:count 	6686
attr source  time3
attr title  "time3, count"
scalar ldMacTest.host[37].mac 	time2:count 	6843
attr source  time2
attr title  "time2, count"
scalar ldMacTest.host[37].mac 	time1:count 	6272
attr source  time1
attr title  "time1, count"
scalar ldMacTest.host[37].mac 	time0:count 	62462
attr source  time0
attr title  "time0, count"
scalar ldMacTest.host[37].mac 	sentPkCount:count 	892428
attr interpolationmode  node
attr source  sentPkCount
attr title  "pkCount, count"
scalar ldMacTest.host[37].mac 	discardPkCount:count 	0
attr interpolationmode  node
attr source  discardPkCount
attr title  "discardPkCount, count"
scalar ldMacTest.host[37].mac 	queueTime:mean 	0.15754651707204
attr source  queueTime
attr title  "queueTime, mean"
scalar ldMacTest.host[38].app 	errorCount:count 	0
attr interpolationmode  node
attr source  errorCount
attr title  "errorCount, count"
scalar ldMacTest.host[38].app 	appPkCount:count 	969251
attr interpolationmode  node
attr source  appPkCount
attr title  "appPkCount, count"
scalar ldMacTest.host[38].mac 	time10:count 	0
attr source  time10
attr title  "time10, count"
scalar ldMacTest.host[38].mac 	time9:count 	2632
attr source  time9
attr title  "time9, count"
scalar ldMacTest.host[38].mac 	time8:count 	6917
attr source  time8
attr title  "time8, count"
scalar ldMacTest.host[38].mac 	time7:count 	10896
attr source  time7
attr title  "time7, count"
scalar ldMacTest.host[38].mac 	time6:count 	12338
attr source  time6
attr title  "time6, count"
scalar ldMacTest.host[38].mac 	time5:count 	15945
attr source  time5
attr title  "time5, count"
scalar ldMacTest.host[38].mac 	time4:count 	12086
attr source  time4
attr title  "time4, count"
scalar ldMacTest.host[38].mac 	time3:count 	5176
attr source  time3
attr title  "time3, count"
scalar ldMacTest.host[38].mac 	time2:count 	0
attr source  time2
attr title  "time2, count"
scalar ldMacTest.host[38].mac 	time1:count 	0
attr source  time1
attr title  "time1, count"
scalar ldMacTest.host[38].mac 	time0:count 	65990
attr source  time0
attr title  "time0, count"
scalar ldMacTest.host[38].mac 	sentPkCount:count 	969011
attr interpolationmode  node
attr source  sentPkCount
attr title  "pkCount, count"
scalar ldMacTest.host[38].mac 	discardPkCount:count 	0
attr interpolationmode  node
attr source  discardPkCount
attr title  "discardPkCount, count"
scalar ldMacTest.host[38].mac 	queueTime:mean 	0.15965129423888
attr source  queueTime
attr title  "queueTime, mean"
scalar ldMacTest.host[39].app 	errorCount:count 	0
attr interpolationmode  node
attr source  errorCount
attr title  "errorCount, count"
scalar ldMacTest.host[39].app 	appPkCount:count 	964948
attr interpolationmode  node
attr source  appPkCount
attr title  "appPkCount, count"
scalar ldMacTest.host[39].mac 	time10:count 	2974
attr source  time10
attr title  "time10, count"
scalar ldMacTest.host[39].mac 	time9:count 	7167
attr source  time9
attr title  "time9, count"
scalar ldMacTest.host[39].mac 	time8:count 	8213
attr source  time8
attr title  "time8, count"
scalar ldMacTest.host[39].mac 	time7:count 	21897
attr source  time7
attr title  "time7, count"
scalar ldMacTest.host[39].mac 	time6:count 	2904
attr source  time6
attr title  "time6, count"
scalar ldMacTest.host[39].mac 	time5:count 	2931
attr source  time5
attr title  "time5, count"
scalar ldMacTest.host[39].mac 	time4:count 	5033
attr source  time4
attr title  "time4, count"
scalar ldMacTest.host[39].mac 	time3:count 	6550
attr source  time3
attr title  "time3, count"
scalar ldMacTest.host[39].mac 	time2:count 	8264
attr source  time2
attr title  "time2, count"
scalar ldMacTest.host[39].mac 	time1:count 	0
attr source  time1
attr title  "time1, count"
scalar ldMacTest.host[39].mac 	time0:count 	65933
attr source  time0
attr title  "time0, count"
scalar ldMacTest.host[39].mac 	sentPkCount:count 	964948
attr interpolationmode  node
attr source  sentPkCount
attr title  "pkCount, count"
scalar ldMacTest.host[39].mac 	discardPkCount:count 	0
attr interpolationmode  node
attr source  discardPkCount
attr title  "discardPkCount, count"
scalar ldMacTest.host[39].mac 	queueTime:mean 	0.16787590147657
attr source  queueTime
attr title  "queueTime, mean"
scalar ldMacTest.host[40].app 	errorCount:count 	0
attr interpolationmode  node
attr source  errorCount
attr title  "errorCount, count"
scalar ldMacTest.host[40].app 	appPkCount:count 	965052
attr interpolationmode  node
attr source  appPkCount
attr title  "appPkCount, count"
scalar ldMacTest.host[40].mac 	time10:count 	0
attr source  time10
attr title  "time10, count"
scalar ldMacTest.host[40].mac 	time9:count 	0
attr source  time9
attr title  "time9, count"
scalar ldMacTest.host[40].mac 	time8:count 	0
attr source  time8
attr title  "time8, count"
scalar ldMacTest.host[40].mac 	time7:count 	2431
attr source  time7
attr title  "time7, count"
scalar ldMacTest.host[40].mac 	time6:count 	6868
attr source  time6
attr title  "time6, count"
scalar ldMacTest.host[40].mac 	time5:count 	13614
attr source  time5
attr title  "time5, count"
scalar ldMacTest.host[40].mac 	time4:count 	15018
attr source  time4
attr title  "time4, count"
scalar ldMacTest.host[40].mac 	time3:count 	16969
attr source  time3
attr title  "time3, count"
scalar ldMacTest.host[40].mac 	time2:count 	5683
attr source  time2
attr title  "time2, count"
scalar ldMacTest.host[40].mac 	time1:count 	5365
attr source  time1
attr title  "time1, count"
scalar ldMacTest.host[40].mac 	time0:count 	65948
attr source  time0
attr title  "time0, count"
scalar ldMacTest.host[40].mac 	sentPkCount:count 	965052
attr interpolationmode  node
attr source  sentPkCount
attr title  "pkCount, count"
scalar ldMacTest.host[40].mac 	discardPkCount:count 	0
attr interpolationmode  node
attr source  discardPkCount
attr title  "discardPkCount, count"
scalar ldMacTest.host[40].mac 	queueTime:mean 	0.14602645506757
attr source  queueTime
attr title  "queueTime, mean"
scalar ldMacTest.host[41].app 	errorCount:count 	0
attr interpolationmode  node
attr source  errorCount
attr title  "errorCount, count"
scalar ldMacTest.host[41].app 	appPkCount:count 	954535
attr interpolationmode  node
attr source  appPkCount
attr title  "appPkCount, count"
scalar ldMacTest.host[41].mac 	time10:count 	6985
attr source  time10
attr title  "time10, count"
scalar ldMacTest.host[41].mac 	time9:count 	7324
attr source  time9
attr title  "time9, count"
scalar ldMacTest.host[41].mac 	time8:count 	9142
attr source  time8
attr title  "time8, count"
scalar ldMacTest.host[41].mac 	time7:count 	13509
attr source  time7
attr title  "time7, count"
scalar ldMacTest.host[41].mac 	time6:count 	18341
attr source  time6
attr title  "time6, count"
scalar ldMacTest.host[41].mac 	time5:count 	0
attr source  time5
attr title  "time5, count"
scalar ldMacTest.host[41].mac 	time4:count 	0
attr source  time4
attr title  "time4, count"
scalar ldMacTest.host[41].mac 	time3:count 	0
attr source  time3
attr title  "time3, count"
scalar ldMacTest.host[41].mac 	time2:count 	0
attr source  time2
attr title  "time2, count"
scalar ldMacTest.host[41].mac 	time1:count 	0
attr source  time1
attr title  "time1, count"
scalar ldMacTest.host[41].mac 	time0:count 	55301
attr source  time0
attr title  "time0, count"
scalar ldMacTest.host[41].mac 	sentPkCount:count 	801061
attr interpolationmode  node
attr source  sentPkCount
attr title  "pkCount, count"
scalar ldMacTest.host[41].mac 	discardPkCount:count 	0
attr interpolationmode  node
attr source  discardPkCount
attr title  "discardPkCount, count"
scalar ldMacTest.host[41].mac 	queueTime:mean 	0.17804292183774
attr source  queueTime
attr title  "queueTime, mean"
scalar ldMacTest.host[42].app 	errorCount:count 	0
attr interpolationmode  node
attr source  errorCount
attr title  "errorCount, count"
scalar ldMacTest.host[42].app 	appPkCount:count 	968191
attr interpolationmode  node
attr source  appPkCount
attr title  "appPkCount, count"
scalar ldMacTest.host[42].mac 	time10:count 	3324
attr source  time10
attr title  "time10, count"
scalar ldMacTest.host[42].mac 	time9:count 	3147
attr source  time9
attr title  "time9, count"
scalar ldMacTest.host[42].mac 	time8:count 	8553
attr source  time8
attr title  "time8, count"
scalar ldMacTest.host[42].mac 	time7:count 	19861
attr source  time7
attr title  "time7, count"
scalar ldMacTest.host[42].mac 	time6:count 	7486
attr source  time6
attr title  "time6, count"
scalar ldMacTest.host[42].mac 	time5:count 	9339
attr source  time5
attr title  "time5, count"
scalar ldMacTest.host[42].mac 	time4:count 	12713
attr source  time4
attr title  "time4, count"
scalar ldMacTest.host[42].mac 	time3:count 	0
attr source  time3
attr title  "time3, count"
scalar ldMacTest.host[42].mac 	time2:count 	0
attr source  time2
attr title  "time2, count"
scalar ldMacTest.host[42].mac 	time1:count 	0
attr source  time1
attr title  "time1, count"
scalar ldMacTest.host[42].mac 	time0:count 	64423
attr source  time0
attr title  "time0, count"
scalar ldMacTest.host[42].mac 	sentPkCount:count 	951715
attr interpolationmode  node
attr source  sentPkCount
attr title  "pkCount, count"
scalar ldMacTest.host[42].mac 	discardPkCount:count 	0
attr interpolationmode  node
attr source  discardPkCount
attr title  "discardPkCount, count"
scalar ldMacTest.host[42].mac 	queueTime:mean 	0.16916317882998
attr source  queueTime
attr title  "queueTime, mean"
scalar ldMacTest.host[43].app 	errorCount:count 	0
attr interpolationmode  node
attr source  errorCount
attr title  "errorCount, count"
scalar ldMacTest.host[43].app 	appPkCount:count 	937380
attr interpolationmode  node
attr source  appPkCount
attr title  "appPkCount, count"
scalar ldMacTest.host[43].mac 	time10:count 	3419
attr source  time10
attr title  "time10, count"
scalar ldMacTest.host[43].mac 	time9:count 	2819
attr source  time9
attr title  "time9, count"
scalar ldMacTest.host[43].mac 	time8:count 	2762
attr source  time8
attr title  "time8, count"
scalar ldMacTest.host[43].mac 	time7:count 	2697
attr source  time7
attr title  "time7, count"
scalar ldMacTest.host[43].mac 	time6:count 	2830
attr source  time6
attr title  "time6, count"
scalar ldMacTest.host[43].mac 	time5:count 	6614
attr source  time5
attr title  "time5, count"
scalar ldMacTest.host[43].mac 	time4:count 	10512
attr source  time4
attr title  "time4, count"
scalar ldMacTest.host[43].mac 	time3:count 	12924
attr source  time3
attr title  "time3, count"
scalar ldMacTest.host[43].mac 	time2:count 	5628
attr source  time2
attr title  "time2, count"
scalar ldMacTest.host[43].mac 	time1:count 	5550
attr source  time1
attr title  "time1, count"
scalar ldMacTest.host[43].mac 	time0:count 	55755
attr source  time0
attr title  "time0, count"
scalar ldMacTest.host[43].mac 	sentPkCount:count 	792535
attr interpolationmode  node
attr source  sentPkCount
attr title  "pkCount, count"
scalar ldMacTest.host[43].mac 	discardPkCount:count 	0
attr interpolationmode  node
attr source  discardPkCount
attr title  "discardPkCount, count"
scalar ldMacTest.host[43].mac 	queueTime:mean 	0.1544284553553
attr source  queueTime
attr title  "queueTime, mean"
scalar ldMacTest.host[44].app 	errorCount:count 	0
attr interpolationmode  node
attr source  errorCount
attr title  "errorCount, count"
scalar ldMacTest.host[44].app 	appPkCount:count 	955380
attr interpolationmode  node
attr source  appPkCount
attr title  "appPkCount, count"
scalar ldMacTest.host[44].mac 	time10:count 	0
attr source  time10
attr title  "time10, count"
scalar ldMacTest.host[44].mac 	time9:count 	0
attr source  time9
attr title  "time9, count"
scalar ldMacTest.host[44].mac 	time8:count 	0
attr source  time8
attr title  "time8, count"
scalar ldMacTest.host[44].mac 	time7:count 	4687
attr source  time7
attr title  "time7, count"
scalar ldMacTest.host[44].mac 	time6:count 	6752
attr source  time6
attr title  "time6, count"
scalar ldMacTest.host[44].mac 	time5:count 	7869
attr source  time5
attr title  "time5, count"
scalar ldMacTest.host[44].mac 	time4:count 	26226
attr source  time4
attr title  "time4, count"
scalar ldMacTest.host[44].mac 	time3:count 	20491
attr source  time3
attr title  "time3, count"
scalar ldMacTest.host[44].mac 	time2:count 	0
attr source  time2
attr title  "time2, count"
scalar ldMacTest.host[44].mac 	time1:count 	0
attr source  time1
attr title  "time1, count"
scalar ldMacTest.host[44].mac 	time0:count 	66025
[...]
scalar ldMacTest.host[58].mac 	time5:count 	3255
attr source  time5
attr title  "time5, count"
scalar ldMacTest.host[58].mac 	time4:count 	7181
attr source  time4
attr title  "time4, count"
scalar ldMacTest.host[58].mac 	time3:count 	9293
attr source  time3
attr title  "time3, count"
scalar ldMacTest.host[58].mac 	time2:count 	10294
attr source  time2
attr title  "time2, count"
scalar ldMacTest.host[58].mac 	time1:count 	6677
attr source  time1
attr title  "time1, count"
scalar ldMacTest.host[58].mac 	time0:count 	52718
attr source  time0
attr title  "time0, count"
scalar ldMacTest.host[58].mac 	sentPkCount:count 	771958
attr interpolationmode  node
attr source  sentPkCount
attr title  "pkCount, count"
scalar ldMacTest.host[58].mac 	discardPkCount:count 	0
attr interpolationmode  node
attr source  discardPkCount
attr title  "discardPkCount, count"
scalar ldMacTest.host[58].mac 	queueTime:mean 	0.16955877491982
attr source  queueTime
attr title  "queueTime, mean"
scalar ldMacTest.host[59].app 	errorCount:count 	0
attr interpolationmode  node
attr source  errorCount
attr title  "errorCount, count"
scalar ldMacTest.host[59].app 	appPkCount:count 	971011
attr interpolationmode  node
attr source  appPkCount
attr title  "appPkCount, count"
scalar ldMacTest.host[59].mac 	time10:count 	6753
attr source  time10
attr title  "time10, count"
scalar ldMacTest.host[59].mac 	time9:count 	5688
attr source  time9
attr title  "time9, count"
scalar ldMacTest.host[59].mac 	time8:count 	5428
attr source  time8
attr title  "time8, count"
scalar ldMacTest.host[59].mac 	time7:count 	6839
attr source  time7
attr title  "time7, count"
scalar ldMacTest.host[59].mac 	time6:count 	7040
attr source  time6
attr title  "time6, count"
scalar ldMacTest.host[59].mac 	time5:count 	7759
attr source  time5
attr title  "time5, count"
scalar ldMacTest.host[59].mac 	time4:count 	11036
attr source  time4
attr title  "time4, count"
scalar ldMacTest.host[59].mac 	time3:count 	6462
attr source  time3
attr title  "time3, count"
scalar ldMacTest.host[59].mac 	time2:count 	0
attr source  time2
attr title  "time2, count"
scalar ldMacTest.host[59].mac 	time1:count 	0
attr source  time1
attr title  "time1, count"
scalar ldMacTest.host[59].mac 	time0:count 	57005
attr source  time0
attr title  "time0, count"
scalar ldMacTest.host[59].mac 	sentPkCount:count 	837711
attr interpolationmode  node
attr source  sentPkCount
attr title  "pkCount, count"
scalar ldMacTest.host[59].mac 	discardPkCount:count 	0
attr interpolationmode  node
attr source  discardPkCount
attr title  "discardPkCount, count"
scalar ldMacTest.host[59].mac 	queueTime:mean 	0.16753112142325
attr source  queueTime
attr title  "queueTime, mean"
scalar ldMacTest.host[60].app 	errorCount:count 	0
attr interpolationmode  node
attr source  errorCount
attr title  "errorCount, count"
scalar ldMacTest.host[60].app 	appPkCount:count 	946356
attr interpolationmode  node
attr source  appPkCount
attr title  "appPkCount, count"
scalar ldMacTest.host[60].mac 	time10:count 	3873
attr source  time10
attr title  "time10, count"
scalar ldMacTest.host[60].mac 	time9:count 	4225
attr source  time9
attr title  "time9, count"
scalar ldMacTest.host[60].mac 	time8:count 	5542
attr source  time8
attr title  "time8, count"
scalar ldMacTest.host[60].mac 	time7:count 	4822
attr source  time7
attr title  "time7, count"
scalar ldMacTest.host[60].mac 	time6:count 	3528
attr source  time6
attr title  "time6, count"
scalar ldMacTest.host[60].mac 	time5:count 	6876
attr source  time5
attr title  "time5, count"
scalar ldMacTest.host[60].mac 	time4:count 	7660
attr source  time4
attr title  "time4, count"
scalar ldMacTest.host[60].mac 	time3:count 	8715
attr source  time3
attr title  "time3, count"
scalar ldMacTest.host[60].mac 	time2:count 	8102
attr source  time2
attr title  "time2, count"
scalar ldMacTest.host[60].mac 	time1:count 	0
attr source  time1
attr title  "time1, count"
scalar ldMacTest.host[60].mac 	time0:count 	53343
attr source  time0
attr title  "time0, count"
scalar ldMacTest.host[60].mac 	sentPkCount:count 	769852
attr interpolationmode  node
attr source  sentPkCount
attr title  "pkCount, count"
scalar ldMacTest.host[60].mac 	discardPkCount:count 	0
attr interpolationmode  node
attr source  discardPkCount
attr title  "discardPkCount, count"
scalar ldMacTest.host[60].mac 	queueTime:mean 	0.17741984701382
attr source  queueTime
attr title  "queueTime, mean"
scalar ldMacTest.host[61].app 	errorCount:count 	0
attr interpolationmode  node
attr source  errorCount
attr title  "errorCount, count"
scalar ldMacTest.host[61].app 	appPkCount:count 	928583
attr interpolationmode  node
attr source  appPkCount
attr title  "appPkCount, count"
scalar ldMacTest.host[61].mac 	time10:count 	7324
attr source  time10
attr title  "time10, count"
scalar ldMacTest.host[61].mac 	time9:count 	19293
attr source  time9
attr title  "time9, count"
scalar ldMacTest.host[61].mac 	time8:count 	7357
attr source  time8
attr title  "time8, count"
scalar ldMacTest.host[61].mac 	time7:count 	7634
attr source  time7
attr title  "time7, count"
scalar ldMacTest.host[61].mac 	time6:count 	8705
attr source  time6
attr title  "time6, count"
scalar ldMacTest.host[61].mac 	time5:count 	13560
attr source  time5
attr title  "time5, count"
scalar ldMacTest.host[61].mac 	time4:count 	0
attr source  time4
attr title  "time4, count"
scalar ldMacTest.host[61].mac 	time3:count 	0
attr source  time3
attr title  "time3, count"
scalar ldMacTest.host[61].mac 	time2:count 	0
attr source  time2
attr title  "time2, count"
scalar ldMacTest.host[61].mac 	time1:count 	0
attr source  time1
attr title  "time1, count"
scalar ldMacTest.host[61].mac 	time0:count 	63873
attr source  time0
attr title  "time0, count"
scalar ldMacTest.host[61].mac 	sentPkCount:count 	897888
attr interpolationmode  node
attr source  sentPkCount
attr title  "pkCount, count"
scalar ldMacTest.host[61].mac 	discardPkCount:count 	0
attr interpolationmode  node
attr source  discardPkCount
attr title  "discardPkCount, count"
scalar ldMacTest.host[61].mac 	queueTime:mean 	0.18402685368753
attr source  queueTime
attr title  "queueTime, mean"
scalar ldMacTest.host[62].app 	errorCount:count 	0
attr interpolationmode  node
attr source  errorCount
attr title  "errorCount, count"
scalar ldMacTest.host[62].app 	appPkCount:count 	968144
attr interpolationmode  node
attr source  appPkCount
attr title  "appPkCount, count"
scalar ldMacTest.host[62].mac 	time10:count 	10616
attr source  time10
attr title  "time10, count"
scalar ldMacTest.host[62].mac 	time9:count 	8823
attr source  time9
attr title  "time9, count"
scalar ldMacTest.host[62].mac 	time8:count 	6336
attr source  time8
attr title  "time8, count"
scalar ldMacTest.host[62].mac 	time7:count 	6248
attr source  time7
attr title  "time7, count"
scalar ldMacTest.host[62].mac 	time6:count 	6405
attr source  time6
attr title  "time6, count"
scalar ldMacTest.host[62].mac 	time5:count 	6808
attr source  time5
attr title  "time5, count"
scalar ldMacTest.host[62].mac 	time4:count 	8060
attr source  time4
attr title  "time4, count"
scalar ldMacTest.host[62].mac 	time3:count 	11706
attr source  time3
attr title  "time3, count"
scalar ldMacTest.host[62].mac 	time2:count 	0
attr source  time2
attr title  "time2, count"
scalar ldMacTest.host[62].mac 	time1:count 	0
attr source  time1
attr title  "time1, count"
scalar ldMacTest.host[62].mac 	time0:count 	65002
attr source  time0
attr title  "time0, count"
scalar ldMacTest.host[62].mac 	sentPkCount:count 	957331
attr interpolationmode  node
attr source  sentPkCount
attr title  "pkCount, count"
scalar ldMacTest.host[62].mac 	discardPkCount:count 	0
attr interpolationmode  node
attr source  discardPkCount
attr title  "discardPkCount, count"
scalar ldMacTest.host[62].mac 	queueTime:mean 	0.17740034058123
attr source  queueTime
attr title  "queueTime, mean"
scalar ldMacTest.host[63].app 	errorCount:count 	0
attr interpolationmode  node
attr source  errorCount
attr title  "errorCount, count"
scalar ldMacTest.host[63].app 	appPkCount:count 	963590
attr interpolationmode  node
attr source  appPkCount
attr title  "appPkCount, count"
scalar ldMacTest.host[63].mac 	time10:count 	2874
attr source  time10
attr title  "time10, count"
scalar ldMacTest.host[63].mac 	time9:count 	2753
attr source  time9
attr title  "time9, count"
scalar ldMacTest.host[63].mac 	time8:count 	2638
attr source  time8
attr title  "time8, count"
scalar ldMacTest.host[63].mac 	time7:count 	13430
attr source  time7
attr title  "time7, count"
scalar ldMacTest.host[63].mac 	time6:count 	8881
attr source  time6
attr title  "time6, count"
scalar ldMacTest.host[63].mac 	time5:count 	9121
attr source  time5
attr title  "time5, count"
scalar ldMacTest.host[63].mac 	time4:count 	8523
attr source  time4
attr title  "time4, count"
scalar ldMacTest.host[63].mac 	time3:count 	5588
attr source  time3
attr title  "time3, count"
scalar ldMacTest.host[63].mac 	time2:count 	5668
attr source  time2
attr title  "time2, count"
scalar ldMacTest.host[63].mac 	time1:count 	5597
attr source  time1
attr title  "time1, count"
scalar ldMacTest.host[63].mac 	time0:count 	65073
attr source  time0
attr title  "time0, count"
scalar ldMacTest.host[63].mac 	sentPkCount:count 	952161
attr interpolationmode  node
attr source  sentPkCount
attr title  "pkCount, count"
scalar ldMacTest.host[63].mac 	discardPkCount:count 	0
attr interpolationmode  node
attr source  discardPkCount
attr title  "discardPkCount, count"
scalar ldMacTest.host[63].mac 	queueTime:mean 	0.16066719912625
attr source  queueTime
attr title  "queueTime, mean"
scalar ldMacTest.host[64].app 	errorCount:count 	0
attr interpolationmode  node
attr source  errorCount
attr title  "errorCount, count"
scalar ldMacTest.host[64].app 	appPkCount:count 	937366
attr interpolationmode  node
attr source  appPkCount
attr title  "appPkCount, count"
scalar ldMacTest.host[64].mac 	time10:count 	10429
attr source  time10
attr title  "time10, count"
scalar ldMacTest.host[64].mac 	time9:count 	8944
attr source  time9
attr title  "time9, count"
scalar ldMacTest.host[64].mac 	time8:count 	4559
attr source  time8
attr title  "time8, count"
scalar ldMacTest.host[64].mac 	time7:count 	3285
attr source  time7
attr title  "time7, count"
scalar ldMacTest.host[64].mac 	time6:count 	3312
attr source  time6
attr title  "time6, count"
scalar ldMacTest.host[64].mac 	time5:count 	3404
attr source  time5
attr title  "time5, count"
scalar ldMacTest.host[64].mac 	time4:count 	3465
attr source  time4
attr title  "time4, count"
scalar ldMacTest.host[64].mac 	time3:count 	3490
attr source  time3
attr title  "time3, count"
scalar ldMacTest.host[64].mac 	time2:count 	3578
attr source  time2
attr title  "time2, count"
scalar ldMacTest.host[64].mac 	time1:count 	4168
attr source  time1
attr title  "time1, count"
scalar ldMacTest.host[64].mac 	time0:count 	48634
attr source  time0
attr title  "time0, count"
scalar ldMacTest.host[64].mac 	sentPkCount:count 	700914
attr interpolationmode  node
attr source  sentPkCount
attr title  "pkCount, count"
scalar ldMacTest.host[64].mac 	discardPkCount:count 	0
attr interpolationmode  node
attr source  discardPkCount
attr title  "discardPkCount, count"
scalar ldMacTest.host[64].mac 	queueTime:mean 	0.17496114961135
attr source  queueTime
attr title  "queueTime, mean"
scalar ldMacTest.host[65].app 	errorCount:count 	0
attr interpolationmode  node
attr source  errorCount
attr title  "errorCount, count"
scalar ldMacTest.host[65].app 	appPkCount:count 	944691
attr interpolationmode  node
attr source  appPkCount
attr title  "appPkCount, count"
scalar ldMacTest.host[65].mac 	time10:count 	0
attr source  time10
attr title  "time10, count"
scalar ldMacTest.host[65].mac 	time9:count 	659
attr source  time9
attr title  "time9, count"
scalar ldMacTest.host[65].mac 	time8:count 	28069
attr source  time8
attr title  "time8, count"
scalar ldMacTest.host[65].mac 	time7:count 	7243
attr source  time7
attr title  "time7, count"
scalar ldMacTest.host[65].mac 	time6:count 	7850
attr source  time6
attr title  "time6, count"
scalar ldMacTest.host[65].mac 	time5:count 	9812
attr source  time5
attr title  "time5, count"
scalar ldMacTest.host[65].mac 	time4:count 	12326
attr source  time4
attr title  "time4, count"
scalar ldMacTest.host[65].mac 	time3:count 	0
attr source  time3
attr title  "time3, count"
scalar ldMacTest.host[65].mac 	time2:count 	0
attr source  time2
attr title  "time2, count"
scalar ldMacTest.host[65].mac 	time1:count 	0
attr source  time1
attr title  "time1, count"
scalar ldMacTest.host[65].mac 	time0:count 	65959
attr source  time0
attr title  "time0, count"
scalar ldMacTest.host[65].mac 	sentPkCount:count 	944691
attr interpolationmode  node
attr source  sentPkCount
attr title  "pkCount, count"
scalar ldMacTest.host[65].mac 	discardPkCount:count 	0
attr interpolationmode  node
attr source  discardPkCount
attr title  "discardPkCount, count"
scalar ldMacTest.host[65].mac 	queueTime:mean 	0.17303093881353
attr source  queueTime
attr title  "queueTime, mean"
scalar ldMacTest.host[66].app 	errorCount:count 	0
attr interpolationmode  node
attr source  errorCount
attr title  "errorCount, count"
scalar ldMacTest.host[66].app 	appPkCount:count 	950178
attr interpolationmode  node
attr source  appPkCount
attr title  "appPkCount, count"
scalar ldMacTest.host[66].mac 	time10:count 	2181
attr source  time10
attr title  "time10, count"
scalar ldMacTest.host[66].mac 	time9:count 	3510
attr source  time9
attr title  "time9, count"
scalar ldMacTest.host[66].mac 	time8:count 	5272
attr source  time8
attr title  "time8, count"
scalar ldMacTest.host[66].mac 	time7:count 	11662
attr source  time7
attr title  "time7, count"
scalar ldMacTest.host[66].mac 	time6:count 	16428
attr source  time6
attr title  "time6, count"
scalar ldMacTest.host[66].mac 	time5:count 	6238
attr source  time5
attr title  "time5, count"
scalar ldMacTest.host[66].mac 	time4:count 	6641
attr source  time4
attr title  "time4, count"
scalar ldMacTest.host[66].mac 	time3:count 	7891
attr source  time3
attr title  "time3, count"
scalar ldMacTest.host[66].mac 	time2:count 	6018
attr source  time2
attr title  "time2, count"
scalar ldMacTest.host[66].mac 	time1:count 	0
attr source  time1
attr title  "time1, count"
scalar ldMacTest.host[66].mac 	time0:count 	65841
attr source  time0
attr title  "time0, count"
scalar ldMacTest.host[66].mac 	sentPkCount:count 	950178
attr interpolationmode  node
attr source  sentPkCount
attr title  "pkCount, count"
scalar ldMacTest.host[66].mac 	discardPkCount:count 	0
attr interpolationmode  node
attr source  discardPkCount
attr title  "discardPkCount, count"
scalar ldMacTest.host[66].mac 	queueTime:mean 	0.16730413474927
attr source  queueTime
attr title  "queueTime, mean"
scalar ldMacTest.host[67].app 	errorCount:count 	0
attr interpolationmode  node
attr source  errorCount
attr title  "errorCount, count"
scalar ldMacTest.host[67].app 	appPkCount:count 	967002
attr interpolationmode  node
attr source  appPkCount
attr title  "appPkCount, count"
scalar ldMacTest.host[67].mac 	time10:count 	5941
attr source  time10
attr title  "time10, count"
scalar ldMacTest.host[67].mac 	time9:count 	6010
attr source  time9
attr title  "time9, count"
scalar ldMacTest.host[67].mac 	time8:count 	6093
attr source  time8
attr title  "time8, count"
scalar ldMacTest.host[67].mac 	time7:count 	6018
attr source  time7
attr title  "time7, count"
scalar ldMacTest.host[67].mac 	time6:count 	4669
attr source  time6
attr title  "time6, count"
scalar ldMacTest.host[67].mac 	time5:count 	5703
attr source  time5
attr title  "time5, count"
scalar ldMacTest.host[67].mac 	time4:count 	5906
attr source  time4
attr title  "time4, count"
scalar ldMacTest.host[67].mac 	time3:count 	5805
attr source  time3
attr title  "time3, count"
scalar ldMacTest.host[67].mac 	time2:count 	6361
attr source  time2
attr title  "time2, count"
scalar ldMacTest.host[67].mac 	time1:count 	10148
attr source  time1
attr title  "time1, count"
scalar ldMacTest.host[67].mac 	time0:count 	62654
attr source  time0
attr title  "time0, count"
scalar ldMacTest.host[67].mac 	sentPkCount:count 	918073
attr interpolationmode  node
attr source  sentPkCount
attr title  "pkCount, count"
scalar ldMacTest.host[67].mac 	discardPkCount:count 	0
attr interpolationmode  node
attr source  discardPkCount
attr title  "discardPkCount, count"
scalar ldMacTest.host[67].mac 	queueTime:mean 	0.1719671206344
attr source  queueTime
attr title  "queueTime, mean"
scalar ldMacTest.host[68].app 	errorCount:count 	0
attr interpolationmode  node
attr source  errorCount
attr title  "errorCount, count"
scalar ldMacTest.host[68].app 	appPkCount:count 	953693
attr interpolationmode  node
attr source  appPkCount
attr title  "appPkCount, count"
scalar ldMacTest.host[68].mac 	time10:count 	6450
attr source  time10
attr title  "time10, count"
scalar ldMacTest.host[68].mac 	time9:count 	6493
attr source  time9
attr title  "time9, count"
scalar ldMacTest.host[68].mac 	time8:count 	9073
attr source  time8
attr title  "time8, count"
scalar ldMacTest.host[68].mac 	time7:count 	10930
attr source  time7
attr title  "time7, count"
scalar ldMacTest.host[68].mac 	time6:count 	9529
attr source  time6
attr title  "time6, count"
scalar ldMacTest.host[68].mac 	time5:count 	9350
attr source  time5
attr title  "time5, count"
scalar ldMacTest.host[68].mac 	time4:count 	14190
attr source  time4
attr title  "time4, count"
scalar ldMacTest.host[68].mac 	time3:count 	0
attr source  time3
attr title  "time3, count"
scalar ldMacTest.host[68].mac 	time2:count 	0
attr source  time2
attr title  "time2, count"
scalar ldMacTest.host[68].mac 	time1:count 	0
attr source  time1
attr title  "time1, count"
scalar ldMacTest.host[68].mac 	time0:count 	66015
attr source  time0
attr title  "time0, count"
scalar ldMacTest.host[68].mac 	sentPkCount:count 	953693
attr interpolationmode  node
attr source  sentPkCount
attr title  "pkCount, count"
scalar ldMacTest.host[68].mac 	discardPkCount:count 	0
attr interpolationmode  node
attr source  discardPkCount
attr title  "discardPkCount, count"
scalar ldMacTest.host[68].mac 	queueTime:mean 	0.169204501923
attr source  queueTime
attr title  "queueTime, mean"
scalar ldMacTest.host[69].app 	errorCount:count 	0
attr interpolationmode  node
attr source  errorCount
attr title  "errorCount, count"
scalar ldMacTest.host[69].app 	appPkCount:count 	969232
attr interpolationmode  node
attr source  appPkCount
attr title  "appPkCount, count"
scalar ldMacTest.host[69].mac 	time10:count 	4486
attr source  time10
attr title  "time10, count"
scalar ldMacTest.host[69].mac 	time9:count 	6191
attr source  time9
attr title  "time9, count"
scalar ldMacTest.host[69].mac 	time8:count 	9567
attr source  time8
attr title  "time8, count"
scalar ldMacTest.host[69].mac 	time7:count 	8154
attr source  time7
attr title  "time7, count"
scalar ldMacTest.host[69].mac 	time6:count 	6298
attr source  time6
attr title  "time6, count"
scalar ldMacTest.host[69].mac 	time5:count 	6304
attr source  time5
attr title  "time5, count"
scalar ldMacTest.host[69].mac 	time4:count 	7206
attr source  time4
attr title  "time4, count"
scalar ldMacTest.host[69].mac 	time3:count 	6687
attr source  time3
attr title  "time3, count"
scalar ldMacTest.host[69].mac 	time2:count 	6759
attr source  time2
attr title  "time2, count"
scalar ldMacTest.host[69].mac 	time1:count 	4240
attr source  time1
attr title  "time1, count"
scalar ldMacTest.host[69].mac 	time0:count 	65892
attr source  time0
attr title  "time0, count"
scalar ldMacTest.host[69].mac 	sentPkCount:count 	969232
attr interpolationmode  node
attr source  sentPkCount
attr title  "pkCount, count"
scalar ldMacTest.host[69].mac 	discardPkCount:count 	0
attr interpolationmode  node
attr source  discardPkCount
attr title  "discardPkCount, count"
scalar ldMacTest.host[69].mac 	queueTime:mean 	0.16395748040711
attr source  queueTime
attr title  "queueTime, mean"
