version 2
run LD-hostNum-9-20170327-21:55:11-9412
attr configname LD-hostNum
attr datetime 20170327-21:55:11
attr experiment LD-hostNum
attr inifile omnetpp.ini
attr iterationvars $0=100
attr iterationvars2 "$0=100, $repetition=0"
attr measurement $0=100
attr network ldMacTest
attr processid 9412
attr repetition 0
attr replication #0
attr resultdir results
attr runnumber 9
attr seedset 9
param **.ap.macType "\"LdApMac\""
param **.ap.mobility.initFromDisplayString false
param **.ap.mobility.initialX 300000m
param **.ap.mobility.initialY 300000m
param **.ap.mobility.initialZ 0m
param **.ap.mobilityType "\"StationaryMobility\""
param **.constraintAreaMaxX 600000m
param **.constraintAreaMaxY 600000m
param **.constraintAreaMaxZ 0m
param **.constraintAreaMinX 0m
param **.constraintAreaMinY 0m
param **.constraintAreaMinZ 0m
param **.hostNum 50
param **.host[*].app.burstInterval exponential(1.5s)
param **.host[*].app.burstNum "normal(200, 50)"
param **.host[*].app.packetLength 4096b
param **.host[*].app.startTime 0s
param **.host[*].appType "\"BurstGenerator\""
param **.host[*].mac.communicationRange 300000m
param **.host[*].mac.reqLength 100b
param **.host[*].mac.txRate 100000000bps
param **.host[*].macType "\"LdHostMac\""
param **.host[*].mobility.initFromDisplayString false
param **.host[*].mobility.speed uniform(80mps,100mps)
param **.host[*].mobility.updateInterval 1s
param **.host[*].mobility.waitTime 0s
param **.host[*].mobilityType "\"RandomWPMobility\""
param **.reqSlotNum 20
param **.slotLength 0.1ms
param **.slotNum 1000

scalar ldMacTest.ap.mac 	pkCount10:count 	5673271
attr interpolationmode  node
attr source  pkCount10
attr title  "pkCount10, count"
scalar ldMacTest.ap.mac 	pkCount9:count 	7868312
attr interpolationmode  node
attr source  pkCount9
attr title  "pkCount9, count"
scalar ldMacTest.ap.mac 	pkCount8:count 	9314220
attr interpolationmode  node
attr source  pkCount8
attr title  "pkCount8, count"
scalar ldMacTest.ap.mac 	pkCount7:count 	9087112
attr interpolationmode  node
attr source  pkCount7
attr title  "pkCount7, count"
scalar ldMacTest.ap.mac 	pkCount6:count 	10514615
attr interpolationmode  node
attr source  pkCount6
attr title  "pkCount6, count"
scalar ldMacTest.ap.mac 	pkCount5:count 	9278158
attr interpolationmode  node
attr source  pkCount5
attr title  "pkCount5, count"
scalar ldMacTest.ap.mac 	pkCount4:count 	7977617
attr interpolationmode  node
attr source  pkCount4
attr title  "pkCount4, count"
scalar ldMacTest.ap.mac 	pkCount3:count 	5458289
attr interpolationmode  node
attr source  pkCount3
attr title  "pkCount3, count"
scalar ldMacTest.ap.mac 	pkCount2:count 	3911108
attr interpolationmode  node
attr source  pkCount2
attr title  "pkCount2, count"
scalar ldMacTest.ap.mac 	pkCount1:count 	1450044
attr interpolationmode  node
attr source  pkCount1
attr title  "pkCount1, count"
scalar ldMacTest.ap.mac 	pkCount:count 	70532746
attr interpolationmode  node
attr source  pkCount
attr title  "pkCount, count"
scalar ldMacTest.host[0].app 	errorCount:count 	0
attr interpolationmode  node
attr source  errorCount
attr title  "errorCount, count"
scalar ldMacTest.host[0].app 	appPkCount:count 	936897
attr interpolationmode  node
attr source  appPkCount
attr title  "appPkCount, count"
scalar ldMacTest.host[0].mac 	time10:count 	259
attr source  time10
attr title  "time10, count"
scalar ldMacTest.host[0].mac 	time9:count 	98
attr source  time9
attr title  "time9, count"
scalar ldMacTest.host[0].mac 	time8:count 	0
attr source  time8
attr title  "time8, count"
scalar ldMacTest.host[0].mac 	time7:count 	0
attr source  time7
attr title  "time7, count"
scalar ldMacTest.host[0].mac 	time6:count 	0
attr source  time6
attr title  "time6, count"
scalar ldMacTest.host[0].mac 	time5:count 	0
attr source  time5
attr title  "time5, count"
scalar ldMacTest.host[0].mac 	time4:count 	0
attr source  time4
attr title  "time4, count"
scalar ldMacTest.host[0].mac 	time3:count 	0
attr source  time3
attr title  "time3, count"
scalar ldMacTest.host[0].mac 	time2:count 	0
attr source  time2
attr title  "time2, count"
scalar ldMacTest.host[0].mac 	time1:count 	0
attr source  time1
attr title  "time1, count"
scalar ldMacTest.host[0].mac 	time0:count 	357
attr source  time0
attr title  "time0, count"
scalar ldMacTest.host[0].mac 	sentPkCount:count 	454459
attr interpolationmode  node
attr source  sentPkCount
attr title  "pkCount, count"
scalar ldMacTest.host[0].mac 	discardPkCount:count 	106178
attr interpolationmode  node
attr source  discardPkCount
attr title  "discardPkCount, count"
scalar ldMacTest.host[0].mac 	queueTime:mean 	160.82359891219
attr source  queueTime
attr title  "queueTime, mean"
scalar ldMacTest.host[1].app 	errorCount:count 	0
attr interpolationmode  node
attr source  errorCount
attr title  "errorCount, count"
scalar ldMacTest.host[1].app 	appPkCount:count 	960242
attr interpolationmode  node
attr source  appPkCount
attr title  "appPkCount, count"
scalar ldMacTest.host[1].mac 	time10:count 	0
attr source  time10
attr title  "time10, count"
scalar ldMacTest.host[1].mac 	time9:count 	407
attr source  time9
attr title  "time9, count"
scalar ldMacTest.host[1].mac 	time8:count 	250
attr source  time8
attr title  "time8, count"
scalar ldMacTest.host[1].mac 	time7:count 	70
attr source  time7
attr title  "time7, count"
scalar ldMacTest.host[1].mac 	time6:count 	48
attr source  time6
attr title  "time6, count"
scalar ldMacTest.host[1].mac 	time5:count 	54
attr source  time5
attr title  "time5, count"
scalar ldMacTest.host[1].mac 	time4:count 	104
attr source  time4
attr title  "time4, count"
scalar ldMacTest.host[1].mac 	time3:count 	0
attr source  time3
attr title  "time3, count"
scalar ldMacTest.host[1].mac 	time2:count 	0
attr source  time2
attr title  "time2, count"
scalar ldMacTest.host[1].mac 	time1:count 	0
attr source  time1
attr title  "time1, count"
scalar ldMacTest.host[1].mac 	time0:count 	933
attr source  time0
attr title  "time0, count"
scalar ldMacTest.host[1].mac 	sentPkCount:count 	767650
attr interpolationmode  node
attr source  sentPkCount
attr title  "pkCount, count"
scalar ldMacTest.host[1].mac 	discardPkCount:count 	173155
attr interpolationmode  node
attr source  discardPkCount
attr title  "discardPkCount, count"
scalar ldMacTest.host[1].mac 	queueTime:mean 	159.63539006972
attr source  queueTime
attr title  "queueTime, mean"
scalar ldMacTest.host[2].app 	errorCount:count 	0
attr interpolationmode  node
attr source  errorCount
attr title  "errorCount, count"
scalar ldMacTest.host[2].app 	appPkCount:count 	946207
attr interpolationmode  node
attr source  appPkCount
attr title  "appPkCount, count"
scalar ldMacTest.host[2].mac 	time10:count 	0
attr source  time10
attr title  "time10, count"
scalar ldMacTest.host[2].mac 	time9:count 	0
attr source  time9
attr title  "time9, count"
scalar ldMacTest.host[2].mac 	time8:count 	0
attr source  time8
attr title  "time8, count"
scalar ldMacTest.host[2].mac 	time7:count 	30
attr source  time7
attr title  "time7, count"
scalar ldMacTest.host[2].mac 	time6:count 	81
attr source  time6
attr title  "time6, count"
scalar ldMacTest.host[2].mac 	time5:count 	1032
attr source  time5
attr title  "time5, count"
scalar ldMacTest.host[2].mac 	time4:count 	37
attr source  time4
attr title  "time4, count"
scalar ldMacTest.host[2].mac 	time3:count 	38
attr source  time3
attr title  "time3, count"
scalar ldMacTest.host[2].mac 	time2:count 	39
attr source  time2
attr title  "time2, count"
scalar ldMacTest.host[2].mac 	time1:count 	0
attr source  time1
attr title  "time1, count"
scalar ldMacTest.host[2].mac 	time0:count 	1257
attr source  time0
attr title  "time0, count"
scalar ldMacTest.host[2].mac 	sentPkCount:count 	778896
attr interpolationmode  node
attr source  sentPkCount
attr title  "pkCount, count"
scalar ldMacTest.host[2].mac 	discardPkCount:count 	147341
attr interpolationmode  node
attr source  discardPkCount
attr title  "discardPkCount, count"
scalar ldMacTest.host[2].mac 	queueTime:mean 	154.61839909279
attr source  queueTime
attr title  "queueTime, mean"
scalar ldMacTest.host[3].app 	errorCount:count 	0
attr interpolationmode  node
attr source  errorCount
attr title  "errorCount, count"
scalar ldMacTest.host[3].app 	appPkCount:count 	972895
attr interpolationmode  node
attr source  appPkCount
attr title  "appPkCount, count"
scalar ldMacTest.host[3].mac 	time10:count 	75
attr source  time10
attr title  "time10, count"
scalar ldMacTest.host[3].mac 	time9:count 	34
attr source  time9
attr title  "time9, count"
scalar ldMacTest.host[3].mac 	time8:count 	34
attr source  time8
attr title  "time8, count"
scalar ldMacTest.host[3].mac 	time7:count 	34
attr source  time7
attr title  "time7, count"
scalar ldMacTest.host[3].mac 	time6:count 	37
attr source  time6
attr title  "time6, count"
scalar ldMacTest.host[3].mac 	time5:count 	40
attr source  time5
attr title  "time5, count"
scalar ldMacTest.host[3].mac 	time4:count 	50
attr source  time4
attr title  "time4, count"
scalar ldMacTest.host[3].mac 	time3:count 	62
attr source  time3
attr title  "time3, count"
scalar ldMacTest.host[3].mac 	time2:count 	0
attr source  time2
attr title  "time2, count"
scalar ldMacTest.host[3].mac 	time1:count 	0
attr source  time1
attr title  "time1, count"
scalar ldMacTest.host[3].mac 	time0:count 	366
attr source  time0
attr title  "time0, count"
scalar ldMacTest.host[3].mac 	sentPkCount:count 	683976
attr interpolationmode  node
attr source  sentPkCount
attr title  "pkCount, count"
scalar ldMacTest.host[3].mac 	discardPkCount:count 	182717
attr interpolationmode  node
attr source  discardPkCount
attr title  "discardPkCount, count"
scalar ldMacTest.host[3].mac 	queueTime:mean 	178.33994488913
attr source  queueTime
attr title  "queueTime, mean"
scalar ldMacTest.host[4].app 	errorCount:count 	0
attr interpolationmode  node
attr source  errorCount
attr title  "errorCount, count"
scalar ldMacTest.host[4].app 	appPkCount:count 	970470
attr interpolationmode  node
attr source  appPkCount
attr title  "appPkCount, count"
scalar ldMacTest.host[4].mac 	time10:count 	19
attr source  time10
attr title  "time10, count"
scalar ldMacTest.host[4].mac 	time9:count 	20
attr source  time9
attr title  "time9, count"
scalar ldMacTest.host[4].mac 	time8:count 	22
attr source  time8
attr title  "time8, count"
scalar ldMacTest.host[4].mac 	time7:count 	25
attr source  time7
attr title  "time7, count"
scalar ldMacTest.host[4].mac 	time6:count 	74
attr source  time6
attr title  "time6, count"
scalar ldMacTest.host[4].mac 	time5:count 	578
attr source  time5
attr title  "time5, count"
scalar ldMacTest.host[4].mac 	time4:count 	556
attr source  time4
attr title  "time4, count"
scalar ldMacTest.host[4].mac 	time3:count 	35
attr source  time3
attr title  "time3, count"
scalar ldMacTest.host[4].mac 	time2:count 	34
attr source  time2
attr title  "time2, count"
scalar ldMacTest.host[4].mac 	time1:count 	31
attr source  time1
attr title  "time1, count"
scalar ldMacTest.host[4].mac 	time0:count 	1394
attr source  time0
attr title  "time0, count"
scalar ldMacTest.host[4].mac 	sentPkCount:count 	736399
attr interpolationmode  node
attr source  sentPkCount
attr title  "pkCount, count"
scalar ldMacTest.host[4].mac 	discardPkCount:count 	170424
attr interpolationmode  node
attr source  discardPkCount
attr title  "discardPkCount, count"
scalar ldMacTest.host[4].mac 	queueTime:mean 	159.66031220772
attr source  queueTime
attr title  "queueTime, mean"
scalar ldMacTest.host[5].app 	errorCount:count 	0
attr interpolationmode  node
attr source  errorCount
attr title  "errorCount, count"
scalar ldMacTest.host[5].app 	appPkCount:count 	967215
attr interpolationmode  node
attr source  appPkCount
attr title  "appPkCount, count"
scalar ldMacTest.host[5].mac 	time10:count 	28
attr source  time10
attr title  "time10, count"
scalar ldMacTest.host[5].mac 	time9:count 	17
attr source  time9
attr title  "time9, count"
scalar ldMacTest.host[5].mac 	time8:count 	17
attr source  time8
attr title  "time8, count"
scalar ldMacTest.host[5].mac 	time7:count 	22
attr source  time7
attr title  "time7, count"
scalar ldMacTest.host[5].mac 	time6:count 	82
attr source  time6
attr title  "time6, count"
scalar ldMacTest.host[5].mac 	time5:count 	86
attr source  time5
attr title  "time5, count"
scalar ldMacTest.host[5].mac 	time4:count 	110
attr source  time4
attr title  "time4, count"
scalar ldMacTest.host[5].mac 	time3:count 	0
attr source  time3
attr title  "time3, count"
scalar ldMacTest.host[5].mac 	time2:count 	0
attr source  time2
attr title  "time2, count"
scalar ldMacTest.host[5].mac 	time1:count 	0
attr source  time1
attr title  "time1, count"
scalar ldMacTest.host[5].mac 	time0:count 	362
attr source  time0
attr title  "time0, count"
scalar ldMacTest.host[5].mac 	sentPkCount:count 	702975
attr interpolationmode  node
attr source  sentPkCount
attr title  "pkCount, count"
scalar ldMacTest.host[5].mac 	discardPkCount:count 	180836
attr interpolationmode  node
attr source  discardPkCount
attr title  "discardPkCount, count"
scalar ldMacTest.host[5].mac 	queueTime:mean 	177.00273905852
attr source  queueTime
attr title  "queueTime, mean"
scalar ldMacTest.host[6].app 	errorCount:count 	0
attr interpolationmode  node
attr source  errorCount
attr title  "errorCount, count"
scalar ldMacTest.host[6].app 	appPkCount:count 	959733
attr interpolationmode  node
attr source  appPkCount
attr title  "appPkCount, count"
scalar ldMacTest.host[6].mac 	time10:count 	603
attr source  time10
attr title  "time10, count"
scalar ldMacTest.host[6].mac 	time9:count 	39
attr source  time9
attr title  "time9, count"
scalar ldMacTest.host[6].mac 	time8:count 	58
attr source  time8
attr title  "time8, count"
scalar ldMacTest.host[6].mac 	time7:count 	58
attr source  time7
attr title  "time7, count"
scalar ldMacTest.host[6].mac 	time6:count 	65
attr source  time6
attr title  "time6, count"
scalar ldMacTest.host[6].mac 	time5:count 	78
attr source  time5
attr title  "time5, count"
scalar ldMacTest.host[6].mac 	time4:count 	58
attr source  time4
attr title  "time4, count"
scalar ldMacTest.host[6].mac 	time3:count 	0
attr source  time3
attr title  "time3, count"
scalar ldMacTest.host[6].mac 	time2:count 	0
attr source  time2
attr title  "time2, count"
scalar ldMacTest.host[6].mac 	time1:count 	0
attr source  time1
attr title  "time1, count"
scalar ldMacTest.host[6].mac 	time0:count 	959
attr source  time0
attr title  "time0, count"
scalar ldMacTest.host[6].mac 	sentPkCount:count 	757704
attr interpolationmode  node
attr source  sentPkCount
attr title  "pkCount, count"
scalar ldMacTest.host[6].mac 	discardPkCount:count 	182089
attr interpolationmode  node
attr source  discardPkCount
attr title  "discardPkCount, count"
scalar ldMacTest.host[6].mac 	queueTime:mean 	163.71318912234
attr source  queueTime
attr title  "queueTime, mean"
scalar ldMacTest.host[7].app 	errorCount:count 	0
attr interpolationmode  node
attr source  errorCount
attr title  "errorCount, count"
scalar ldMacTest.host[7].app 	appPkCount:count 	981132
attr interpolationmode  node
attr source  appPkCount
attr title  "appPkCount, count"
scalar ldMacTest.host[7].mac 	time10:count 	712
attr source  time10
attr title  "time10, count"
scalar ldMacTest.host[7].mac 	time9:count 	21
attr source  time9
attr title  "time9, count"
scalar ldMacTest.host[7].mac 	time8:count 	19
attr source  time8
attr title  "time8, count"
scalar ldMacTest.host[7].mac 	time7:count 	18
attr source  time7
attr title  "time7, count"
scalar ldMacTest.host[7].mac 	time6:count 	24
attr source  time6
attr title  "time6, count"
scalar ldMacTest.host[7].mac 	time5:count 	136
attr source  time5
attr title  "time5, count"
scalar ldMacTest.host[7].mac 	time4:count 	47
attr source  time4
attr title  "time4, count"
scalar ldMacTest.host[7].mac 	time3:count 	38
attr source  time3
attr title  "time3, count"
scalar ldMacTest.host[7].mac 	time2:count 	47
attr source  time2
attr title  "time2, count"
scalar ldMacTest.host[7].mac 	time1:count 	21
attr source  time1
attr title  "time1, count"
scalar ldMacTest.host[7].mac 	time0:count 	1083
attr source  time0
attr title  "time0, count"
scalar ldMacTest.host[7].mac 	sentPkCount:count 	775015
attr interpolationmode  node
attr source  sentPkCount
attr title  "pkCount, count"
scalar ldMacTest.host[7].mac 	discardPkCount:count 	186197
attr interpolationmode  node
attr source  discardPkCount
attr title  "discardPkCount, count"
scalar ldMacTest.host[7].mac 	queueTime:mean 	162.43385837428
attr source  queueTime
attr title  "queueTime, mean"
scalar ldMacTest.host[8].app 	errorCount:count 	0
attr interpolationmode  node
attr source  errorCount
attr title  "errorCount, count"
scalar ldMacTest.host[8].app 	appPkCount:count 	952478
attr interpolationmode  node
attr source  appPkCount
attr title  "appPkCount, count"
scalar ldMacTest.host[8].mac 	time10:count 	0
attr source  time10
attr title  "time10, count"
scalar ldMacTest.host[8].mac 	time9:count 	861
attr source  time9
attr title  "time9, count"
scalar ldMacTest.host[8].mac 	time8:count 	43
attr source  time8
attr title  "time8, count"
scalar ldMacTest.host[8].mac 	time7:count 	34
attr source  time7
attr title  "time7, count"
scalar ldMacTest.host[8].mac 	time6:count 	37
attr source  time6
attr title  "time6, count"
scalar ldMacTest.host[8].mac 	time5:count 	39
attr source  time5
attr title  "time5, count"
scalar ldMacTest.host[8].mac 	time4:count 	40
attr source  time4
attr title  "time4, count"
scalar ldMacTest.host[8].mac 	time3:count 	46
attr source  time3
attr title  "time3, count"
scalar ldMacTest.host[8].mac 	time2:count 	53
attr source  time2
attr title  "time2, count"
scalar ldMacTest.host[8].mac 	time1:count 	0
attr source  time1
attr title  "time1, count"
scalar ldMacTest.host[8].mac 	time0:count 	1153
attr source  time0
attr title  "time0, count"
scalar ldMacTest.host[8].mac 	sentPkCount:count 	769569
attr interpolationmode  node
attr source  sentPkCount
attr title  "pkCount, count"
scalar ldMacTest.host[8].mac 	discardPkCount:count 	162985
attr interpolationmode  node
attr source  discardPkCount
attr title  "discardPkCount, count"
scalar ldMacTest.host[8].mac 	queueTime:mean 	164.22364759729
attr source  queueTime
attr title  "queueTime, mean"
scalar ldMacTest.host[9].app 	errorCount:count 	0
attr interpolationmode  node
attr source  errorCount
attr title  "errorCount, count"
scalar ldMacTest.host[9].app 	appPkCount:count 	964534
attr interpolationmode  node
attr source  appPkCount
attr title  "appPkCount, count"
scalar ldMacTest.host[9].mac 	time10:count 	201
attr source  time10
attr title  "time10, count"
scalar ldMacTest.host[9].mac 	time9:count 	57
attr source  time9
attr title  "time9, count"
scalar ldMacTest.host[9].mac 	time8:count 	56
attr source  time8
attr title  "time8, count"
scalar ldMacTest.host[9].mac 	time7:count 	54
attr source  time7
attr title  "time7, count"
scalar ldMacTest.host[9].mac 	time6:count 	114
attr source  time6
attr title  "time6, count"
scalar ldMacTest.host[9].mac 	time5:count 	0
attr source  time5
attr title  "time5, count"
scalar ldMacTest.host[9].mac 	time4:count 	0
attr source  time4
attr title  "time4, count"
scalar ldMacTest.host[9].mac 	time3:count 	0
attr source  time3
attr title  "time3, count"
scalar ldMacTest.host[9].mac 	time2:count 	0
attr source  time2
attr title  "time2, count"
scalar ldMacTest.host[9].mac 	time1:count 	0
attr source  time1
attr title  "time1, count"
scalar ldMacTest.host[9].mac 	time0:count 	482
attr source  time0
attr title  "time0, count"
scalar ldMacTest.host[9].mac 	sentPkCount:count 	660189
attr interpolationmode  node
attr source  sentPkCount
attr title  "pkCount, count"
scalar ldMacTest.host[9].mac 	discardPkCount:count 	180281
attr interpolationmode  node
attr source  discardPkCount
attr title  "discardPkCount, count"
scalar ldMacTest.host[9].mac 	queueTime:mean 	179.52064718696
attr source  queueTime
attr title  "queueTime, mean"
scalar ldMacTest.host[10].app 	errorCount:count 	0
attr interpolationmode  node
attr source  errorCount
attr title  "errorCount, count"
scalar ldMacTest.host[10].app 	appPkCount:count 	953285
attr interpolationmode  node
attr source  appPkCount
attr title  "appPkCount, count"
scalar ldMacTest.host[10].mac 	time10:count 	0
attr source  time10
attr title  "time10, count"
scalar ldMacTest.host[10].mac 	time9:count 	768
attr source  time9
attr title  "time9, count"
scalar ldMacTest.host[10].mac 	time8:count 	238
attr source  time8
attr title  "time8, count"
scalar ldMacTest.host[10].mac 	time7:count 	110
attr source  time7
attr title  "time7, count"
scalar ldMacTest.host[10].mac 	time6:count 	95
attr source  time6
attr title  "time6, count"
scalar ldMacTest.host[10].mac 	time5:count 	37
attr source  time5
attr title  "time5, count"
scalar ldMacTest.host[10].mac 	time4:count 	41
attr source  time4
attr title  "time4, count"
scalar ldMacTest.host[10].mac 	time3:count 	0
attr source  time3
attr title  "time3, count"
scalar ldMacTest.host[10].mac 	time2:count 	0
attr source  time2
attr title  "time2, count"
scalar ldMacTest.host[10].mac 	time1:count 	0
attr source  time1
attr title  "time1, count"
scalar ldMacTest.host[10].mac 	time0:count 	1289
attr source  time0
attr title  "time0, count"
scalar ldMacTest.host[10].mac 	sentPkCount:count 	751688
attr interpolationmode  node
attr source  sentPkCount
attr title  "pkCount, count"
scalar ldMacTest.host[10].mac 	discardPkCount:count 	182535
attr interpolationmode  node
attr source  discardPkCount
attr title  "discardPkCount, count"
scalar ldMacTest.host[10].mac 	queueTime:mean 	167.22917782346
attr source  queueTime
attr title  "queueTime, mean"
scalar ldMacTest.host[11].app 	errorCount:count 	0
attr interpolationmode  node
attr source  errorCount
attr title  "errorCount, count"
scalar ldMacTest.host[11].app 	appPkCount:count 	954729
attr interpolationmode  node
attr source  appPkCount
attr title  "appPkCount, count"
scalar ldMacTest.host[11].mac 	time10:count 	44
attr source  time10
attr title  "time10, count"
scalar ldMacTest.host[11].mac 	time9:count 	40
attr source  time9
attr title  "time9, count"
scalar ldMacTest.host[11].mac 	time8:count 	49
attr source  time8
attr title  "time8, count"
scalar ldMacTest.host[11].mac 	time7:count 	681
attr source  time7
attr title  "time7, count"
scalar ldMacTest.host[11].mac 	time6:count 	16
attr source  time6
attr title  "time6, count"
scalar ldMacTest.host[11].mac 	time5:count 	11
attr source  time5
attr title  "time5, count"
scalar ldMacTest.host[11].mac 	time4:count 	0
attr source  time4
attr title  "time4, count"
scalar ldMacTest.host[11].mac 	time3:count 	0
attr source  time3
attr title  "time3, count"
scalar ldMacTest.host[11].mac 	time2:count 	0
attr source  time2
attr title  "time2, count"
scalar ldMacTest.host[11].mac 	time1:count 	0
attr source  time1
attr title  "time1, count"
scalar ldMacTest.host[11].mac 	time0:count 	841
attr source  time0
attr title  "time0, count"
scalar ldMacTest.host[11].mac 	sentPkCount:count 	436895
attr interpolationmode  node
attr source  sentPkCount
attr title  "pkCount, count"
scalar ldMacTest.host[11].mac 	discardPkCount:count 	76666
attr interpolationmode  node
attr source  discardPkCount
attr title  "discardPkCount, count"
scalar ldMacTest.host[11].mac 	queueTime:mean 	131.00552542809
attr source  queueTime
attr title  "queueTime, mean"
scalar ldMacTest.host[12].app 	errorCount:count 	0
attr interpolationmode  node
attr source  errorCount
attr title  "errorCount, count"
scalar ldMacTest.host[12].app 	appPkCount:count 	950497
attr interpolationmode  node
attr source  appPkCount
attr title  "appPkCount, count"
scalar ldMacTest.host[12].mac 	time10:count 	968
attr source  time10
attr title  "time10, count"
scalar ldMacTest.host[12].mac 	time9:count 	96
attr source  time9
attr title  "time9, count"
scalar ldMacTest.host[12].mac 	time8:count 	37
attr source  time8
attr title  "time8, count"
scalar ldMacTest.host[12].mac 	time7:count 	37
attr source  time7
attr title  "time7, count"
scalar ldMacTest.host[12].mac 	time6:count 	38
attr source  time6
attr title  "time6, count"
scalar ldMacTest.host[12].mac 	time5:count 	38
attr source  time5
attr title  "time5, count"
scalar ldMacTest.host[12].mac 	time4:count 	40
attr source  time4
attr title  "time4, count"
scalar ldMacTest.host[12].mac 	time3:count 	40
attr source  time3
attr title  "time3, count"
scalar ldMacTest.host[12].mac 	time2:count 	46
attr source  time2
attr title  "time2, count"
scalar ldMacTest.host[12].mac 	time1:count 	31
attr source  time1
attr title  "time1, count"
scalar ldMacTest.host[12].mac 	time0:count 	1371
attr source  time0
attr title  "time0, count"
scalar ldMacTest.host[12].mac 	sentPkCount:count 	763570
attr interpolationmode  node
attr source  sentPkCount
attr title  "pkCount, count"
scalar ldMacTest.host[12].mac 	discardPkCount:count 	167069
attr interpolationmode  node
attr source  discardPkCount
attr title  "discardPkCount, count"
scalar ldMacTest.host[12].mac 	queueTime:mean 	158.21630516993
attr source  queueTime
attr title  "queueTime, mean"
scalar ldMacTest.host[13].app 	errorCount:count 	0
attr interpolationmode  node
attr source  errorCount
attr title  "errorCount, count"
scalar ldMacTest.host[13].app 	appPkCount:count 	959961
attr interpolationmode  node
attr source  appPkCount
attr title  "appPkCount, count"
scalar ldMacTest.host[13].mac 	time10:count 	0
attr source  time10
attr title  "time10, count"
scalar ldMacTest.host[13].mac 	time9:count 	0
attr source  time9
attr title  "time9, count"
scalar ldMacTest.host[13].mac 	time8:count 	17
attr source  time8
attr title  "time8, count"
scalar ldMacTest.host[13].mac 	time7:count 	36
attr source  time7
attr title  "time7, count"
scalar ldMacTest.host[13].mac 	time6:count 	37
attr source  time6
attr title  "time6, count"
scalar ldMacTest.host[13].mac 	time5:count 	43
attr source  time5
attr title  "time5, count"
scalar ldMacTest.host[13].mac 	time4:count 	1106
attr source  time4
attr title  "time4, count"
scalar ldMacTest.host[13].mac 	time3:count 	131
attr source  time3
attr title  "time3, count"
scalar ldMacTest.host[13].mac 	time2:count 	65
attr source  time2
attr title  "time2, count"
scalar ldMacTest.host[13].mac 	time1:count 	0
attr source  time1
attr title  "time1, count"
scalar ldMacTest.host[13].mac 	time0:count 	1435
attr source  time0
attr title  "time0, count"
scalar ldMacTest.host[13].mac 	sentPkCount:count 	777128
attr interpolationmode  node
attr source  sentPkCount
attr title  "pkCount, count"
scalar ldMacTest.host[13].mac 	discardPkCount:count 	164122
attr interpolationmode  node
attr source  discardPkCount
attr title  "discardPkCount, count"
scalar ldMacTest.host[13].mac 	queueTime:mean 	158.38374198993
attr source  queueTime
attr title  "queueTime, mean"
scalar ldMacTest.host[14].app 	errorCount:count 	0
attr interpolationmode  node
attr source  errorCount
attr title  "errorCount, count"
scalar ldMacTest.host[14].app 	appPkCount:count 	941298
attr interpolationmode  node
attr source  appPkCount
attr title  "appPkCount, count"
scalar ldMacTest.host[14].mac 	time10:count 	696
attr source  time10
attr title  "time10, count"
scalar ldMacTest.host[14].mac 	time9:count 	148
attr source  time9
attr title  "time9, count"
scalar ldMacTest.host[14].mac 	time8:count 	158
attr source  time8
attr title  "time8, count"
scalar ldMacTest.host[14].mac 	time7:count 	2
attr source  time7
attr title  "time7, count"
scalar ldMacTest.host[14].mac 	time6:count 	0
attr source  time6
attr title  "time6, count"
scalar ldMacTest.host[14].mac 	time5:count 	0
attr source  time5
attr title  "time5, count"
scalar ldMacTest.host[14].mac 	time4:count 	0
attr source  time4
attr title  "time4, count"
scalar ldMacTest.host[14].mac 	time3:count 	0
attr source  time3
attr title  "time3, count"
scalar ldMacTest.host[14].mac 	time2:count 	0
attr source  time2
attr title  "time2, count"
scalar ldMacTest.host[14].mac 	time1:count 	0
attr source  time1
attr title  "time1, count"
scalar ldMacTest.host[14].mac 	time0:count 	1004
attr source  time0
attr title  "time0, count"
scalar ldMacTest.host[14].mac 	sentPkCount:count 	737136
attr interpolationmode  node
attr source  sentPkCount
attr title  "pkCount, count"
scalar ldMacTest.host[14].mac 	discardPkCount:count 	184495
attr interpolationmode  node
attr source  discardPkCount
attr title  "discardPkCount, count"
scalar ldMacTest.host[14].mac 	queueTime:mean 	170.66118270508
attr source  queueTime
attr title  "queueTime, mean"
scalar ldMacTest.host[15].app 	errorCount:count 	0
attr interpolationmode  node
attr source  errorCount
attr title  "errorCount, count"
scalar ldMacTest.host[15].app 	appPkCount:count 	954476
attr interpolationmode  node
attr source  appPkCount
attr title  "appPkCount, count"
scalar ldMacTest.host[15].mac 	time10:count 	0
attr source  time10
attr title  "time10, count"
scalar ldMacTest.host[15].mac 	time9:count 	11
attr source  time9
attr title  "time9, count"
scalar ldMacTest.host[15].mac 	time8:count 	652
attr source  time8
attr title  "time8, count"
scalar ldMacTest.host[15].mac 	time7:count 	102
attr source  time7
attr title  "time7, count"
scalar ldMacTest.host[15].mac 	time6:count 	126
attr source  time6
attr title  "time6, count"
scalar ldMacTest.host[15].mac 	time5:count 	63
attr source  time5
attr title  "time5, count"
scalar ldMacTest.host[15].mac 	time4:count 	0
attr source  time4
attr title  "time4, count"
scalar ldMacTest.host[15].mac 	time3:count 	0
attr source  time3
attr title  "time3, count"
scalar ldMacTest.host[15].mac 	time2:count 	0
attr source  time2
attr title  "time2, count"
scalar ldMacTest.host[15].mac 	time1:count 	0
attr source  time1
attr title  "time1, count"
scalar ldMacTest.host[15].mac 	time0:count 	954
attr source  time0
attr title  "time0, count"
scalar ldMacTest.host[15].mac 	sentPkCount:count 	759657
attr interpolationmode  node
attr source  sentPkCount
attr title  "pkCount, count"
scalar ldMacTest.host[15].mac 	discardPkCount:count 	175085
attr interpolationmode  node
attr source  discardPkCount
attr title  "discardPkCount, count"
scalar ldMacTest.host[15].mac 	queueTime:mean 	167.72638577453
attr source  queueTime
attr title  "queueTime, mean"
scalar ldMacTest.host[16].app 	errorCount:count 	0
attr interpolationmode  node
attr source  errorCount
attr title  "errorCount, count"
scalar ldMacTest.host[16].app 	appPkCount:count 	952707
attr interpolationmode  node
attr source  appPkCount
attr title  "appPkCount, count"
scalar ldMacTest.host[16].mac 	time10:count 	74
attr source  time10
attr title  "time10, count"
scalar ldMacTest.host[16].mac 	time9:count 	22
attr source  time9
attr title  "time9, count"
scalar ldMacTest.host[16].mac 	time8:count 	20
attr source  time8
attr title  "time8, count"
scalar ldMacTest.host[16].mac 	time7:count 	21
attr source  time7
attr title  "time7, count"
scalar ldMacTest.host[16].mac 	time6:count 	751
attr source  time6
attr title  "time6, count"
scalar ldMacTest.host[16].mac 	time5:count 	58
attr source  time5
attr title  "time5, count"
scalar ldMacTest.host[16].mac 	time4:count 	90
attr source  time4
attr title  "time4, count"
scalar ldMacTest.host[16].mac 	time3:count 	0
attr source  time3
attr title  "time3, count"
scalar ldMacTest.host[16].mac 	time2:count 	0
attr source  time2
attr title  "time2, count"
scalar ldMacTest.host[16].mac 	time1:count 	0
attr source  time1
attr title  "time1, count"
scalar ldMacTest.host[16].mac 	time0:count 	1036
attr source  time0
attr title  "time0, count"
scalar ldMacTest.host[16].mac 	sentPkCount:count 	595973
attr interpolationmode  node
attr source  sentPkCount
attr title  "pkCount, count"
scalar ldMacTest.host[16].mac 	discardPkCount:count 	111739
attr interpolationmode  node
attr source  discardPkCount
attr title  "discardPkCount, count"
scalar ldMacTest.host[16].mac 	queueTime:mean 	148.95224959236
attr source  queueTime
attr title  "queueTime, mean"
scalar ldMacTest.host[17].app 	errorCount:count 	0
attr interpolationmode  node
attr source  errorCount
attr title  "errorCount, count"
scalar ldMacTest.host[17].app 	appPkCount:count 	966313
attr interpolationmode  node
attr source  appPkCount
attr title  "appPkCount, count"
scalar ldMacTest.host[17].mac 	time10:count 	746
attr source  time10
attr title  "time10, count"
scalar ldMacTest.host[17].mac 	time9:count 	23
attr source  time9
attr title  "time9, count"
scalar ldMacTest.host[17].mac 	time8:count 	52
attr source  time8
attr title  "time8, count"
scalar ldMacTest.host[17].mac 	time7:count 	134
attr source  time7
attr title  "time7, count"
scalar ldMacTest.host[17].mac 	time6:count 	44
attr source  time6
attr title  "time6, count"
scalar ldMacTest.host[17].mac 	time5:count 	0
attr source  time5
attr title  "time5, count"
scalar ldMacTest.host[17].mac 	time4:count 	0
attr source  time4
attr title  "time4, count"
scalar ldMacTest.host[17].mac 	time3:count 	0
attr source  time3
attr title  "time3, count"
scalar ldMacTest.host[17].mac 	time2:count 	0
attr source  time2
attr title  "time2, count"
scalar ldMacTest.host[17].mac 	time1:count 	0
attr source  time1
attr title  "time1, count"
scalar ldMacTest.host[17].mac 	time0:count 	999
attr source  time0
attr title  "time0, count"
scalar ldMacTest.host[17].mac 	sentPkCount:count 	575765
attr interpolationmode  node
attr source  sentPkCount
attr title  "pkCount, count"
scalar ldMacTest.host[17].mac 	discardPkCount:count 	163256
attr interpolationmode  node
attr source  discardPkCount
attr title  "discardPkCount, count"
scalar ldMacTest.host[17].mac 	queueTime:mean 	175.23065935718
attr source  queueTime
attr title  "queueTime, mean"
scalar ldMacTest.host[18].app 	errorCount:count 	0
attr interpolationmode  node
attr source  errorCount
attr title  "errorCount, count"
scalar ldMacTest.host[18].app 	appPkCount:count 	945140
attr interpolationmode  node
attr source  appPkCount
attr title  "appPkCount, count"
scalar ldMacTest.host[18].mac 	time10:count 	79
attr source  time10
attr title  "time10, count"
scalar ldMacTest.host[18].mac 	time9:count 	46
attr source  time9
attr title  "time9, count"
scalar ldMacTest.host[18].mac 	time8:count 	916
attr source  time8
attr title  "time8, count"
scalar ldMacTest.host[18].mac 	time7:count 	17
attr source  time7
attr title  "time7, count"
scalar ldMacTest.host[18].mac 	time6:count 	16
attr source  time6
attr title  "time6, count"
scalar ldMacTest.host[18].mac 	time5:count 	17
attr source  time5
attr title  "time5, count"
scalar ldMacTest.host[18].mac 	time4:count 	16
attr source  time4
attr title  "time4, count"
scalar ldMacTest.host[18].mac 	time3:count 	17
attr source  time3
attr title  "time3, count"
scalar ldMacTest.host[18].mac 	time2:count 	14
attr source  time2
attr title  "time2, count"
scalar ldMacTest.host[18].mac 	time1:count 	0
attr source  time1
attr title  "time1, count"
scalar ldMacTest.host[18].mac 	time0:count 	1138
attr source  time0
attr title  "time0, count"
scalar ldMacTest.host[18].mac 	sentPkCount:count 	553785
attr interpolationmode  node
attr source  sentPkCount
attr title  "pkCount, count"
scalar ldMacTest.host[18].mac 	discardPkCount:count 	102607
attr interpolationmode  node
attr source  discardPkCount
attr title  "discardPkCount, count"
scalar ldMacTest.host[18].mac 	queueTime:mean 	140.66025698544
attr source  queueTime
attr title  "queueTime, mean"
scalar ldMacTest.host[19].app 	errorCount:count 	0
attr interpolationmode  node
attr source  errorCount
attr title  "errorCount, count"
scalar ldMacTest.host[19].app 	appPkCount:count 	968626
attr interpolationmode  node
attr source  appPkCount
attr title  "appPkCount, count"
scalar ldMacTest.host[19].mac 	time10:count 	51
attr source  time10
attr title  "time10, count"
scalar ldMacTest.host[19].mac 	time9:count 	81
attr source  time9
attr title  "time9, count"
scalar ldMacTest.host[19].mac 	time8:count 	34
attr source  time8
attr title  "time8, count"
scalar ldMacTest.host[19].mac 	time7:count 	30
attr source  time7
attr title  "time7, count"
scalar ldMacTest.host[19].mac 	time6:count 	90
attr source  time6
attr title  "time6, count"
scalar ldMacTest.host[19].mac 	time5:count 	560
attr source  time5
attr title  "time5, count"
scalar ldMacTest.host[19].mac 	time4:count 	538
attr source  time4
attr title  "time4, count"
scalar ldMacTest.host[19].mac 	time3:count 	0
attr source  time3
attr title  "time3, count"
scalar ldMacTest.host[19].mac 	time2:count 	0
attr source  time2
attr title  "time2, count"
scalar ldMacTest.host[19].mac 	time1:count 	0
attr source  time1
attr title  "time1, count"
scalar ldMacTest.host[19].mac 	time0:count 	1384
attr source  time0
attr title  "time0, count"
scalar ldMacTest.host[19].mac 	sentPkCount:count 	753387
attr interpolationmode  node
attr source  sentPkCount
attr title  "pkCount, count"
scalar ldMacTest.host[19].mac 	discardPkCount:count 	195269
attr interpolationmode  node
attr source  discardPkCount
attr title  "discardPkCount, count"
scalar ldMacTest.host[19].mac 	queueTime:mean 	156.77756874628
attr source  queueTime
attr title  "queueTime, mean"
scalar ldMacTest.host[20].app 	errorCount:count 	0
attr interpolationmode  node
attr source  errorCount
attr title  "errorCount, count"
scalar ldMacTest.host[20].app 	appPkCount:count 	982315
attr interpolationmode  node
attr source  appPkCount
attr title  "appPkCount, count"
scalar ldMacTest.host[20].mac 	time10:count 	183
attr source  time10
attr title  "time10, count"
scalar ldMacTest.host[20].mac 	time9:count 	0
attr source  time9
attr title  "time9, count"
scalar ldMacTest.host[20].mac 	time8:count 	0
attr source  time8
attr title  "time8, count"
scalar ldMacTest.host[20].mac 	time7:count 	0
attr source  time7
attr title  "time7, count"
scalar ldMacTest.host[20].mac 	time6:count 	0
attr source  time6
attr title  "time6, count"
scalar ldMacTest.host[20].mac 	time5:count 	0
attr source  time5
attr title  "time5, count"
scalar ldMacTest.host[20].mac 	time4:count 	0
attr source  time4
attr title  "time4, count"
scalar ldMacTest.host[20].mac 	time3:count 	0
attr source  time3
attr title  "time3, count"
scalar ldMacTest.host[20].mac 	time2:count 	0
attr source  time2
attr title  "time2, count"
scalar ldMacTest.host[20].mac 	time1:count 	0
attr source  time1
attr title  "time1, count"
scalar ldMacTest.host[20].mac 	time0:count 	183
attr source  time0
attr title  "time0, count"
scalar ldMacTest.host[20].mac 	sentPkCount:count 	222379
attr interpolationmode  node
attr source  sentPkCount
attr title  "pkCount, count"
scalar ldMacTest.host[20].mac 	discardPkCount:count 	70663
attr interpolationmode  node
attr source  discardPkCount
attr title  "discardPkCount, count"
scalar ldMacTest.host[20].mac 	queueTime:mean 	176.26436510472
attr source  queueTime
attr title  "queueTime, mean"
scalar ldMacTest.host[21].app 	errorCount:count 	0
attr interpolationmode  node
attr source  errorCount
attr title  "errorCount, count"
scalar ldMacTest.host[21].app 	appPkCount:count 	921017
attr interpolationmode  node
attr source  appPkCount
attr title  "appPkCount, count"
scalar ldMacTest.host[21].mac 	time10:count 	993
attr source  time10
attr title  "time10, count"
scalar ldMacTest.host[21].mac 	time9:count 	108
attr source  time9
attr title  "time9, count"
scalar ldMacTest.host[21].mac 	time8:count 	82
attr source  time8
attr title  "time8, count"
scalar ldMacTest.host[21].mac 	time7:count 	22
attr source  time7
attr title  "time7, count"
scalar ldMacTest.host[21].mac 	time6:count 	21
attr source  time6
attr title  "time6, count"
scalar ldMacTest.host[21].mac 	time5:count 	16
attr source  time5
attr title  "time5, count"
scalar ldMacTest.host[21].mac 	time4:count 	16
attr source  time4
attr title  "time4, count"
scalar ldMacTest.host[21].mac 	time3:count 	16
attr source  time3
attr title  "time3, count"
scalar ldMacTest.host[21].mac 	time2:count 	16
attr source  time2
attr title  "time2, count"
scalar ldMacTest.host[21].mac 	time1:count 	5
attr source  time1
attr title  "time1, count"
scalar ldMacTest.host[21].mac 	time0:count 	1295
attr source  time0
attr title  "time0, count"
scalar ldMacTest.host[21].mac 	sentPkCount:count 	740764
attr interpolationmode  node
attr source  sentPkCount
attr title  "pkCount, count"
scalar ldMacTest.host[21].mac 	discardPkCount:count 	160418
attr interpolationmode  node
attr source  discardPkCount
attr title  "discardPkCount, count"
scalar ldMacTest.host[21].mac 	queueTime:mean 	168.12545499757
attr source  queueTime
attr title  "queueTime, mean"
scalar ldMacTest.host[22].app 	errorCount:count 	0
attr interpolationmode  node
attr source  errorCount
attr title  "errorCount, count"
scalar ldMacTest.host[22].app 	appPkCount:count 	932192
attr interpolationmode  node
attr source  appPkCount
attr title  "appPkCount, count"
scalar ldMacTest.host[22].mac 	time10:count 	0
attr source  time10
attr title  "time10, count"
scalar ldMacTest.host[22].mac 	time9:count 	0
attr source  time9
attr title  "time9, count"
scalar ldMacTest.host[22].mac 	time8:count 	504
attr source  time8
attr title  "time8, count"
scalar ldMacTest.host[22].mac 	time7:count 	724
attr source  time7
attr title  "time7, count"
scalar ldMacTest.host[22].mac 	time6:count 	124
attr source  time6
attr title  "time6, count"
scalar ldMacTest.host[22].mac 	time5:count 	65
attr source  time5
attr title  "time5, count"
scalar ldMacTest.host[22].mac 	time4:count 	55
attr source  time4
attr title  "time4, count"
scalar ldMacTest.host[22].mac 	time3:count 	47
attr source  time3
attr title  "time3, count"
scalar ldMacTest.host[22].mac 	time2:count 	0
attr source  time2
attr title  "time2, count"
scalar ldMacTest.host[22].mac 	time1:count 	0
attr source  time1
attr title  "time1, count"
scalar ldMacTest.host[22].mac 	time0:count 	1519
attr source  time0
attr title  "time0, count"
scalar ldMacTest.host[22].mac 	sentPkCount:count 	765078
attr interpolationmode  node
attr source  sentPkCount
attr title  "pkCount, count"
scalar ldMacTest.host[22].mac 	discardPkCount:count 	147214
attr interpolationmode  node
attr source  discardPkCount
attr title  "discardPkCount, count"
scalar ldMacTest.host[22].mac 	queueTime:mean 	153.03274055959
attr source  queueTime
attr title  "queueTime, mean"
scalar ldMacTest.host[23].app 	errorCount:count 	0
attr interpolationmode  node
attr source  errorCount
attr title  "errorCount, count"
scalar ldMacTest.host[23].app 	appPkCount:count 	958033
attr interpolationmode  node
attr source  appPkCount
attr title  "appPkCount, count"
scalar ldMacTest.host[23].mac 	time10:count 	543
attr source  time10
attr title  "time10, count"
scalar ldMacTest.host[23].mac 	time9:count 	53
attr source  time9
attr title  "time9, count"
scalar ldMacTest.host[23].mac 	time8:count 	41
attr source  time8
attr title  "time8, count"
scalar ldMacTest.host[23].mac 	time7:count 	36
attr source  time7
attr title  "time7, count"
scalar ldMacTest.host[23].mac 	time6:count 	37
attr source  time6
attr title  "time6, count"
scalar ldMacTest.host[23].mac 	time5:count 	38
attr source  time5
attr title  "time5, count"
scalar ldMacTest.host[23].mac 	time4:count 	42
attr source  time4
attr title  "time4, count"
scalar ldMacTest.host[23].mac 	time3:count 	50
attr source  time3
attr title  "time3, count"
scalar ldMacTest.host[23].mac 	time2:count 	70
attr source  time2
attr title  "time2, count"
scalar ldMacTest.host[23].mac 	time1:count 	0
attr source  time1
attr title  "time1, count"
scalar ldMacTest.host[23].mac 	time0:count 	910
attr source  time0
attr title  "time0, count"
scalar ldMacTest.host[23].mac 	sentPkCount:count 	772929
attr interpolationmode  node
attr source  sentPkCount
attr title  "pkCount, count"
scalar ldMacTest.host[23].mac 	discardPkCount:count 	165560
attr interpolationmode  node
attr source  discardPkCount
attr title  "discardPkCount, count"
scalar ldMacTest.host[23].mac 	queueTime:mean 	160.05716846147
attr source  queueTime
attr title  "queueTime, mean"
scalar ldMacTest.host[24].app 	errorCount:count 	0
attr interpolationmode  node
attr source  errorCount
attr title  "errorCount, count"
scalar ldMacTest.host[24].app 	appPkCount:count 	942062
attr interpolationmode  node
attr source  appPkCount
attr title  "appPkCount, count"
scalar ldMacTest.host[24].mac 	time10:count 	0
attr source  time10
attr title  "time10, count"
scalar ldMacTest.host[24].mac 	time9:count 	19
attr source  time9
attr title  "time9, count"
scalar ldMacTest.host[24].mac 	time8:count 	949
attr source  time8
attr title  "time8, count"
scalar ldMacTest.host[24].mac 	time7:count 	40
attr source  time7
attr title  "time7, count"
scalar ldMacTest.host[24].mac 	time6:count 	41
attr source  time6
attr title  "time6, count"
scalar ldMacTest.host[24].mac 	time5:count 	44
attr source  time5
attr title  "time5, count"
scalar ldMacTest.host[24].mac 	time4:count 	52
attr source  time4
attr title  "time4, count"
scalar ldMacTest.host[24].mac 	time3:count 	18
attr source  time3
attr title  "time3, count"
scalar ldMacTest.host[24].mac 	time2:count 	0
attr source  time2
attr title  "time2, count"
scalar ldMacTest.host[24].mac 	time1:count 	0
attr source  time1
attr title  "time1, count"
scalar ldMacTest.host[24].mac 	time0:count 	1163
attr source  time0
attr title  "time0, count"
scalar ldMacTest.host[24].mac 	sentPkCount:count 	759817
attr interpolationmode  node
attr source  sentPkCount
attr title  "pkCount, count"
scalar ldMacTest.host[24].mac 	discardPkCount:count 	162375
attr interpolationmode  node
attr source  discardPkCount
attr title  "discardPkCount, count"
scalar ldMacTest.host[24].mac 	queueTime:mean 	161.52148418616
attr source  queueTime
attr title  "queueTime, mean"
scalar ldMacTest.host[25].app 	errorCount:count 	0
attr interpolationmode  node
attr source  errorCount
attr title  "errorCount, count"
scalar ldMacTest.host[25].app 	appPkCount:count 	942512
attr interpolationmode  node
attr source  appPkCount
attr title  "appPkCount, count"
scalar ldMacTest.host[25].mac 	time10:count 	70
attr source  time10
attr title  "time10, count"
scalar ldMacTest.host[25].mac 	time9:count 	779
attr source  time9
attr title  "time9, count"
scalar ldMacTest.host[25].mac 	time8:count 	93
attr source  time8
attr title  "time8, count"
scalar ldMacTest.host[25].mac 	time7:count 	17
attr source  time7
attr title  "time7, count"
scalar ldMacTest.host[25].mac 	time6:count 	18
attr source  time6
attr title  "time6, count"
scalar ldMacTest.host[25].mac 	time5:count 	17
attr source  time5
attr title  "time5, count"
scalar ldMacTest.host[25].mac 	time4:count 	19
attr source  time4
attr title  "time4, count"
scalar ldMacTest.host[25].mac 	time3:count 	18
attr source  time3
attr title  "time3, count"
scalar ldMacTest.host[25].mac 	time2:count 	19
attr source  time2
attr title  "time2, count"
scalar ldMacTest.host[25].mac 	time1:count 	0
attr source  time1
attr title  "time1, count"
scalar ldMacTest.host[25].mac 	time0:count 	1050
attr source  time0
attr title  "time0, count"
scalar ldMacTest.host[25].mac 	sentPkCount:count 	627471
attr interpolationmode  node
attr source  sentPkCount
attr title  "pkCount, count"
scalar ldMacTest.host[25].mac 	discardPkCount:count 	117153
attr interpolationmode  node
attr source  discardPkCount
attr title  "discardPkCount, count"
scalar ldMacTest.host[25].mac 	queueTime:mean 	149.94103134466
attr source  queueTime
attr title  "queueTime, mean"
scalar ldMacTest.host[26].app 	errorCount:count 	0
attr interpolationmode  node
attr source  errorCount
attr title  "errorCount, count"
scalar ldMacTest.host[26].app 	appPkCount:count 	957189
attr interpolationmode  node
attr source  appPkCount
attr title  "appPkCount, count"
scalar ldMacTest.host[26].mac 	time10:count 	39
attr source  time10
attr title  "time10, count"
scalar ldMacTest.host[26].mac 	time9:count 	17
attr source  time9
attr title  "time9, count"
scalar ldMacTest.host[26].mac 	time8:count 	519
attr source  time8
attr title  "time8, count"
scalar ldMacTest.host[26].mac 	time7:count 	465
attr source  time7
attr title  "time7, count"
scalar ldMacTest.host[26].mac 	time6:count 	38
attr source  time6
attr title  "time6, count"
scalar ldMacTest.host[26].mac 	time5:count 	37
attr source  time5
attr title  "time5, count"
scalar ldMacTest.host[26].mac 	time4:count 	36
attr source  time4
attr title  "time4, count"
scalar ldMacTest.host[26].mac 	time3:count 	36
attr source  time3
attr title  "time3, count"
scalar ldMacTest.host[26].mac 	time2:count 	39
attr source  time2
attr title  "time2, count"
scalar ldMacTest.host[26].mac 	time1:count 	24
attr source  time1
attr title  "time1, count"
scalar ldMacTest.host[26].mac 	time0:count 	1250
attr source  time0
attr title  "time0, count"
scalar ldMacTest.host[26].mac 	sentPkCount:count 	654568
attr interpolationmode  node
attr source  sentPkCount
attr title  "pkCount, count"
scalar ldMacTest.host[26].mac 	discardPkCount:count 	128483
attr interpolationmode  node
attr source  discardPkCount
attr title  "discardPkCount, count"
scalar ldMacTest.host[26].mac 	queueTime:mean 	155.95936197257
attr source  queueTime
attr title  "queueTime, mean"
scalar ldMacTest.host[27].app 	errorCount:count 	0
attr interpolationmode  node
attr source  errorCount
attr title  "errorCount, count"
scalar ldMacTest.host[27].app 	appPkCount:count 	957751
attr interpolationmode  node
attr source  appPkCount
attr title  "appPkCount, count"
scalar ldMacTest.host[27].mac 	time10:count 	22
attr source  time10
attr title  "time10, count"
scalar ldMacTest.host[27].mac 	time9:count 	33
attr source  time9
attr title  "time9, count"
scalar ldMacTest.host[27].mac 	time8:count 	374
attr source  time8
attr title  "time8, count"
scalar ldMacTest.host[27].mac 	time7:count 	608
attr source  time7
attr title  "time7, count"
scalar ldMacTest.host[27].mac 	time6:count 	62
attr source  time6
attr title  "time6, count"
scalar ldMacTest.host[27].mac 	time5:count 	45
attr source  time5
attr title  "time5, count"
scalar ldMacTest.host[27].mac 	time4:count 	36
attr source  time4
attr title  "time4, count"
scalar ldMacTest.host[27].mac 	time3:count 	35
attr source  time3
attr title  "time3, count"
scalar ldMacTest.host[27].mac 	time2:count 	35
attr source  time2
attr title  "time2, count"
scalar ldMacTest.host[27].mac 	time1:count 	32
attr source  time1
attr title  "time1, count"
scalar ldMacTest.host[27].mac 	time0:count 	1282
attr source  time0
attr title  "time0, count"
scalar ldMacTest.host[27].mac 	sentPkCount:count 	766780
attr interpolationmode  node
attr source  sentPkCount
attr title  "pkCount, count"
scalar ldMacTest.host[27].mac 	discardPkCount:count 	170987
attr interpolationmode  node
attr source  discardPkCount
attr title  "discardPkCount, count"
scalar ldMacTest.host[27].mac 	queueTime:mean 	159.80225178897
attr source  queueTime
attr title  "queueTime, mean"
scalar ldMacTest.host[28].app 	errorCount:count 	0
attr interpolationmode  node
attr source  errorCount
attr title  "errorCount, count"
scalar ldMacTest.host[28].app 	appPkCount:count 	950194
attr interpolationmode  node
attr source  appPkCount
attr title  "appPkCount, count"
scalar ldMacTest.host[28].mac 	time10:count 	82
attr source  time10
attr title  "time10, count"
scalar ldMacTest.host[28].mac 	time9:count 	16
attr source  time9
attr title  "time9, count"
scalar ldMacTest.host[28].mac 	time8:count 	17
attr source  time8
attr title  "time8, count"
scalar ldMacTest.host[28].mac 	time7:count 	27
attr source  time7
attr title  "time7, count"
scalar ldMacTest.host[28].mac 	time6:count 	119
attr source  time6
attr title  "time6, count"
scalar ldMacTest.host[28].mac 	time5:count 	0
attr source  time5
attr title  "time5, count"
scalar ldMacTest.host[28].mac 	time4:count 	0
attr source  time4
attr title  "time4, count"
scalar ldMacTest.host[28].mac 	time3:count 	0
attr source  time3
attr title  "time3, count"
scalar ldMacTest.host[28].mac 	time2:count 	0
attr source  time2
attr title  "time2, count"
scalar ldMacTest.host[28].mac 	time1:count 	0
attr source  time1
attr title  "time1, count"
scalar ldMacTest.host[28].mac 	time0:count 	261
attr source  time0
attr title  "time0, count"
scalar ldMacTest.host[28].mac 	sentPkCount:count 	391122
attr interpolationmode  node
attr source  sentPkCount
attr title  "pkCount, count"
scalar ldMacTest.host[28].mac 	discardPkCount:count 	102200
attr interpolationmode  node
attr source  discardPkCount
attr title  "discardPkCount, count"
scalar ldMacTest.host[28].mac 	queueTime:mean 	173.45514232818
attr source  queueTime
attr title  "queueTime, mean"
scalar ldMacTest.host[29].app 	errorCount:count 	0
attr interpolationmode  node
attr source  errorCount
attr title  "errorCount, count"
scalar ldMacTest.host[29].app 	appPkCount:count 	936278
attr interpolationmode  node
attr source  appPkCount
attr title  "appPkCount, count"
scalar ldMacTest.host[29].mac 	time10:count 	648
attr source  time10
attr title  "time10, count"
scalar ldMacTest.host[29].mac 	time9:count 	21
attr source  time9
attr title  "time9, count"
scalar ldMacTest.host[29].mac 	time8:count 	22
attr source  time8
attr title  "time8, count"
scalar ldMacTest.host[29].mac 	time7:count 	26
attr source  time7
attr title  "time7, count"
scalar ldMacTest.host[29].mac 	time6:count 	29
attr source  time6
attr title  "time6, count"
scalar ldMacTest.host[29].mac 	time5:count 	119
attr source  time5
attr title  "time5, count"
scalar ldMacTest.host[29].mac 	time4:count 	0
attr source  time4
attr title  "time4, count"
scalar ldMacTest.host[29].mac 	time3:count 	0
attr source  time3
attr title  "time3, count"
scalar ldMacTest.host[29].mac 	time2:count 	0
attr source  time2
attr title  "time2, count"
scalar ldMacTest.host[29].mac 	time1:count 	0
attr source  time1
attr title  "time1, count"
scalar ldMacTest.host[29].mac 	time0:count 	865
attr source  time0
attr title  "time0, count"
scalar ldMacTest.host[29].mac 	sentPkCount:count 	728169
attr interpolationmode  node
attr source  sentPkCount
attr title  "pkCount, count"
scalar ldMacTest.host[29].mac 	discardPkCount:count 	175722
attr interpolationmode  node
attr source  discardPkCount
attr title  "discardPkCount, count"
scalar ldMacTest.host[29].mac 	queueTime:mean 	170.63159781702
attr source  queueTime
attr title  "queueTime, mean"
scalar ldMacTest.host[30].app 	errorCount:count 	0
attr interpolationmode  node
attr source  errorCount
attr title  "errorCount, count"
scalar ldMacTest.host[30].app 	appPkCount:count 	990521
attr interpolationmode  node
attr source  appPkCount
attr title  "appPkCount, count"
scalar ldMacTest.host[30].mac 	time10:count 	0
attr source  time10
attr title  "time10, count"
scalar ldMacTest.host[30].mac 	time9:count 	0
attr source  time9
attr title  "time9, count"
scalar ldMacTest.host[30].mac 	time8:count 	514
attr source  time8
attr title  "time8, count"
scalar ldMacTest.host[30].mac 	time7:count 	205
attr source  time7
attr title  "time7, count"
scalar ldMacTest.host[30].mac 	time6:count 	47
attr source  time6
attr title  "time6, count"
scalar ldMacTest.host[30].mac 	time5:count 	38
attr source  time5
attr title  "time5, count"
scalar ldMacTest.host[30].mac 	time4:count 	39
attr source  time4
attr title  "time4, count"
scalar ldMacTest.host[30].mac 	time3:count 	81
attr source  time3
attr title  "time3, count"
scalar ldMacTest.host[30].mac 	time2:count 	88
attr source  time2
attr title  "time2, count"
scalar ldMacTest.host[30].mac 	time1:count 	58
attr source  time1
attr title  "time1, count"
scalar ldMacTest.host[30].mac 	time0:count 	1070
attr source  time0
attr title  "time0, count"
scalar ldMacTest.host[30].mac 	sentPkCount:count 	787120
attr interpolationmode  node
attr source  sentPkCount
attr title  "pkCount, count"
scalar ldMacTest.host[30].mac 	discardPkCount:count 	183960
attr interpolationmode  node
attr source  discardPkCount
attr title  "discardPkCount, count"
scalar ldMacTest.host[30].mac 	queueTime:mean 	153.36378069766
attr source  queueTime
attr title  "queueTime, mean"
scalar ldMacTest.host[31].app 	errorCount:count 	0
attr interpolationmode  node
attr source  errorCount
attr title  "errorCount, count"
scalar ldMacTest.host[31].app 	appPkCount:count 	934016
attr interpolationmode  node
attr source  appPkCount
attr title  "appPkCount, count"
scalar ldMacTest.host[31].mac 	time10:count 	31
attr source  time10
attr title  "time10, count"
scalar ldMacTest.host[31].mac 	time9:count 	17
attr source  time9
attr title  "time9, count"
scalar ldMacTest.host[31].mac 	time8:count 	35
attr source  time8
attr title  "time8, count"
scalar ldMacTest.host[31].mac 	time7:count 	37
attr source  time7
attr title  "time7, count"
scalar ldMacTest.host[31].mac 	time6:count 	37
attr source  time6
attr title  "time6, count"
scalar ldMacTest.host[31].mac 	time5:count 	39
attr source  time5
attr title  "time5, count"
scalar ldMacTest.host[31].mac 	time4:count 	42
attr source  time4
attr title  "time4, count"
scalar ldMacTest.host[31].mac 	time3:count 	41
attr source  time3
attr title  "time3, count"
scalar ldMacTest.host[31].mac 	time2:count 	43
attr source  time2
attr title  "time2, count"
scalar ldMacTest.host[31].mac 	time1:count 	38
attr source  time1
attr title  "time1, count"
scalar ldMacTest.host[31].mac 	time0:count 	360
attr source  time0
attr title  "time0, count"
scalar ldMacTest.host[31].mac 	sentPkCount:count 	692381
attr interpolationmode  node
attr source  sentPkCount
attr title  "pkCount, count"
scalar ldMacTest.host[31].mac 	discardPkCount:count 	145553
attr interpolationmode  node
attr source  discardPkCount
attr title  "discardPkCount, count"
scalar ldMacTest.host[31].mac 	queueTime:mean 	172.50953067526
attr source  queueTime
attr title  "queueTime, mean"
scalar ldMacTest.host[32].app 	errorCount:count 	0
attr interpolationmode  node
attr source  errorCount
attr title  "errorCount, count"
scalar ldMacTest.host[32].app 	appPkCount:count 	962114
attr interpolationmode  node
attr source  appPkCount
attr title  "appPkCount, count"
scalar ldMacTest.host[32].mac 	time10:count 	31
attr source  time10
attr title  "time10, count"
scalar ldMacTest.host[32].mac 	time9:count 	40
attr source  time9
attr title  "time9, count"
scalar ldMacTest.host[32].mac 	time8:count 	43
attr source  time8
attr title  "time8, count"
scalar ldMacTest.host[32].mac 	time7:count 	127
attr source  time7
attr title  "time7, count"
scalar ldMacTest.host[32].mac 	time6:count 	44
attr source  time6
attr title  "time6, count"
scalar ldMacTest.host[32].mac 	time5:count 	54
attr source  time5
attr title  "time5, count"
scalar ldMacTest.host[32].mac 	time4:count 	65
attr source  time4
attr title  "time4, count"
scalar ldMacTest.host[32].mac 	time3:count 	534
attr source  time3
attr title  "time3, count"
scalar ldMacTest.host[32].mac 	time2:count 	0
attr source  time2
attr title  "time2, count"
scalar ldMacTest.host[32].mac 	time1:count 	0
attr source  time1
attr title  "time1, count"
scalar ldMacTest.host[32].mac 	time0:count 	938
attr source  time0
attr title  "time0, count"
scalar ldMacTest.host[32].mac 	sentPkCount:count 	751028
attr interpolationmode  node
attr source  sentPkCount
attr title  "pkCount, count"
scalar ldMacTest.host[32].mac 	discardPkCount:count 	191821
attr interpolationmode  node
attr source  discardPkCount
attr title  "discardPkCount, count"
scalar ldMacTest.host[32].mac 	queueTime:mean 	165.72866969806
attr source  queueTime
attr title  "queueTime, mean"
scalar ldMacTest.host[33].app 	errorCount:count 	0
attr interpolationmode  node
attr source  errorCount
attr title  "errorCount, count"
scalar ldMacTest.host[33].app 	appPkCount:count 	961802
attr interpolationmode  node
attr source  appPkCount
attr title  "appPkCount, count"
scalar ldMacTest.host[33].mac 	time10:count 	98
attr source  time10
attr title  "time10, count"
scalar ldMacTest.host[33].mac 	time9:count 	123
attr source  time9
attr title  "time9, count"
scalar ldMacTest.host[33].mac 	time8:count 	23
attr source  time8
attr title  "time8, count"
scalar ldMacTest.host[33].mac 	time7:count 	28
attr source  time7
attr title  "time7, count"
scalar ldMacTest.host[33].mac 	time6:count 	64
attr source  time6
attr title  "time6, count"
scalar ldMacTest.host[33].mac 	time5:count 	0
attr source  time5
attr title  "time5, count"
scalar ldMacTest.host[33].mac 	time4:count 	0
attr source  time4
attr title  "time4, count"
scalar ldMacTest.host[33].mac 	time3:count 	0
attr source  time3
attr title  "time3, count"
scalar ldMacTest.host[33].mac 	time2:count 	0
attr source  time2
attr title  "time2, count"
scalar ldMacTest.host[33].mac 	time1:count 	0
attr source  time1
attr title  "time1, count"
scalar ldMacTest.host[33].mac 	time0:count 	336
attr source  time0
attr title  "time0, count"
scalar ldMacTest.host[33].mac 	sentPkCount:count 	631027
attr interpolationmode  node
attr source  sentPkCount
attr title  "pkCount, count"
scalar ldMacTest.host[33].mac 	discardPkCount:count 	187693
attr interpolationmode  node
attr source  discardPkCount
attr title  "discardPkCount, count"
scalar ldMacTest.host[33].mac 	queueTime:mean 	184.42369209478
attr source  queueTime
attr title  "queueTime, mean"
scalar ldMacTest.host[34].app 	errorCount:count 	0
attr interpolationmode  node
attr source  errorCount
attr title  "errorCount, count"
scalar ldMacTest.host[34].app 	appPkCount:count 	945269
attr interpolationmode  node
attr source  appPkCount
attr title  "appPkCount, count"
scalar ldMacTest.host[34].mac 	time10:count 	0
attr source  time10
attr title  "time10, count"
scalar ldMacTest.host[34].mac 	time9:count 	0
attr source  time9
attr title  "time9, count"
scalar ldMacTest.host[34].mac 	time8:count 	1
attr source  time8
attr title  "time8, count"
scalar ldMacTest.host[34].mac 	time7:count 	66
attr source  time7
attr title  "time7, count"
scalar ldMacTest.host[34].mac 	time6:count 	790
attr source  time6
attr title  "time6, count"
scalar ldMacTest.host[34].mac 	time5:count 	55
attr source  time5
attr title  "time5, count"
scalar ldMacTest.host[34].mac 	time4:count 	42
attr source  time4
attr title  "time4, count"
scalar ldMacTest.host[34].mac 	time3:count 	51
attr source  time3
attr title  "time3, count"
scalar ldMacTest.host[34].mac 	time2:count 	30
attr source  time2
attr title  "time2, count"
scalar ldMacTest.host[34].mac 	time1:count 	0
attr source  time1
attr title  "time1, count"
scalar ldMacTest.host[34].mac 	time0:count 	1035
attr source  time0
attr title  "time0, count"
scalar ldMacTest.host[34].mac 	sentPkCount:count 	771886
attr interpolationmode  node
attr source  sentPkCount
attr title  "pkCount, count"
scalar ldMacTest.host[34].mac 	discardPkCount:count 	153631
attr interpolationmode  node
attr source  discardPkCount
attr title  "discardPkCount, count"
scalar ldMacTest.host[34].mac 	queueTime:mean 	153.21621801587
attr source  queueTime
attr title  "queueTime, mean"
scalar ldMacTest.host[35].app 	errorCount:count 	0
attr interpolationmode  node
attr source  errorCount
attr title  "errorCount, count"
scalar ldMacTest.host[35].app 	appPkCount:count 	956052
attr interpolationmode  node
attr source  appPkCount
attr title  "appPkCount, count"
scalar ldMacTest.host[35].mac 	time10:count 	72
attr source  time10
attr title  "time10, count"
scalar ldMacTest.host[35].mac 	time9:count 	38
attr source  time9
attr title  "time9, count"
scalar ldMacTest.host[35].mac 	time8:count 	40
attr source  time8
attr title  "time8, count"
scalar ldMacTest.host[35].mac 	time7:count 	48
attr source  time7
attr title  "time7, count"
scalar ldMacTest.host[35].mac 	time6:count 	61
attr source  time6
attr title  "time6, count"
scalar ldMacTest.host[35].mac 	time5:count 	20
attr source  time5
attr title  "time5, count"
scalar ldMacTest.host[35].mac 	time4:count 	497
attr source  time4
attr title  "time4, count"
scalar ldMacTest.host[35].mac 	time3:count 	260
attr source  time3
attr title  "time3, count"
scalar ldMacTest.host[35].mac 	time2:count 	0
attr source  time2
attr title  "time2, count"
scalar ldMacTest.host[35].mac 	time1:count 	0
attr source  time1
attr title  "time1, count"
scalar ldMacTest.host[35].mac 	time0:count 	1036
attr source  time0
attr title  "time0, count"
scalar ldMacTest.host[35].mac 	sentPkCount:count 	536841
attr interpolationmode  node
attr source  sentPkCount
attr title  "pkCount, count"
scalar ldMacTest.host[35].mac 	discardPkCount:count 	109296
attr interpolationmode  node
attr source  discardPkCount
attr title  "discardPkCount, count"
scalar ldMacTest.host[35].mac 	queueTime:mean 	141.67153273137
attr source  queueTime
attr title  "queueTime, mean"
scalar ldMacTest.host[36].app 	errorCount:count 	0
attr interpolationmode  node
attr source  errorCount
attr title  "errorCount, count"
scalar ldMacTest.host[36].app 	appPkCount:count 	959092
attr interpolationmode  node
attr source  appPkCount
attr title  "appPkCount, count"
scalar ldMacTest.host[36].mac 	time10:count 	60
attr source  time10
attr title  "time10, count"
scalar ldMacTest.host[36].mac 	time9:count 	53
attr source  time9
attr title  "time9, count"
scalar ldMacTest.host[36].mac 	time8:count 	61
attr source  time8
attr title  "time8, count"
scalar ldMacTest.host[36].mac 	time7:count 	100
attr source  time7
attr title  "time7, count"
scalar ldMacTest.host[36].mac 	time6:count 	19
attr source  time6
attr title  "time6, count"
scalar ldMacTest.host[36].mac 	time5:count 	0
attr source  time5
attr title  "time5, count"
scalar ldMacTest.host[36].mac 	time4:count 	0
attr source  time4
attr title  "time4, count"
scalar ldMacTest.host[36].mac 	time3:count 	0
attr source  time3
attr title  "time3, count"
scalar ldMacTest.host[36].mac 	time2:count 	0
attr source  time2
attr title  "time2, count"
scalar ldMacTest.host[36].mac 	time1:count 	0
attr source  time1
attr title  "time1, count"
scalar ldMacTest.host[36].mac 	time0:count 	293
attr source  time0
attr title  "time0, count"
scalar ldMacTest.host[36].mac 	sentPkCount:count 	553821
attr interpolationmode  node
attr source  sentPkCount
attr title  "pkCount, count"
scalar ldMacTest.host[36].mac 	discardPkCount:count 	171445
attr interpolationmode  node
attr source  discardPkCount
attr title  "discardPkCount, count"
scalar ldMacTest.host[36].mac 	queueTime:mean 	185.96623825523
attr source  queueTime
attr title  "queueTime, mean"
scalar ldMacTest.host[37].app 	errorCount:count 	0
attr interpolationmode  node
attr source  errorCount
attr title  "errorCount, count"
scalar ldMacTest.host[37].app 	appPkCount:count 	966442
attr interpolationmode  node
attr source  appPkCount
attr title  "appPkCount, count"
scalar ldMacTest.host[37].mac 	time10:count 	0
attr source  time10
attr title  "time10, count"
scalar ldMacTest.host[37].mac 	time9:count 	0
attr source  time9
attr title  "time9, count"
scalar ldMacTest.host[37].mac 	time8:count 	38
attr source  time8
attr title  "time8, count"
scalar ldMacTest.host[37].mac 	time7:count 	58
attr source  time7
attr title  "time7, count"
scalar ldMacTest.host[37].mac 	time6:count 	431
attr source  time6
attr title  "time6, count"
scalar ldMacTest.host[37].mac 	time5:count 	500
attr source  time5
attr title  "time5, count"
scalar ldMacTest.host[37].mac 	time4:count 	161
attr source  time4
attr title  "time4, count"
scalar ldMacTest.host[37].mac 	time3:count 	0
attr source  time3
attr title  "time3, count"
scalar ldMacTest.host[37].mac 	time2:count 	0
attr source  time2
attr title  "time2, count"
scalar ldMacTest.host[37].mac 	time1:count 	0
attr source  time1
attr title  "time1, count"
scalar ldMacTest.host[37].mac 	time0:count 	1188
attr source  time0
attr title  "time0, count"
scalar ldMacTest.host[37].mac 	sentPkCount:count 	772447
attr interpolationmode  node
attr source  sentPkCount
attr title  "pkCount, count"
scalar ldMacTest.host[37].mac 	discardPkCount:count 	174047
attr interpolationmode  node
attr source  discardPkCount
attr title  "discardPkCount, count"
scalar ldMacTest.host[37].mac 	queueTime:mean 	154.6745477696
attr source  queueTime
attr title  "queueTime, mean"
scalar ldMacTest.host[38].app 	errorCount:count 	0
attr interpolationmode  node
attr source  errorCount
attr title  "errorCount, count"
scalar ldMacTest.host[38].app 	appPkCount:count 	963494
attr interpolationmode  node
attr source  appPkCount
attr title  "appPkCount, count"
scalar ldMacTest.host[38].mac 	time10:count 	843
attr source  time10
attr title  "time10, count"
scalar ldMacTest.host[38].mac 	time9:count 	22
attr source  time9
attr title  "time9, count"
scalar ldMacTest.host[38].mac 	time8:count 	23
attr source  time8
attr title  "time8, count"
scalar ldMacTest.host[38].mac 	time7:count 	29
attr source  time7
attr title  "time7, count"
scalar ldMacTest.host[38].mac 	time6:count 	52
attr source  time6
attr title  "time6, count"
scalar ldMacTest.host[38].mac 	time5:count 	69
attr source  time5
attr title  "time5, count"
scalar ldMacTest.host[38].mac 	time4:count 	72
attr source  time4
attr title  "time4, count"
scalar ldMacTest.host[38].mac 	time3:count 	0
attr source  time3
attr title  "time3, count"
scalar ldMacTest.host[38].mac 	time2:count 	0
attr source  time2
attr title  "time2, count"
scalar ldMacTest.host[38].mac 	time1:count 	0
attr source  time1
attr title  "time1, count"
scalar ldMacTest.host[38].mac 	time0:count 	1110
attr source  time0
attr title  "time0, count"
scalar ldMacTest.host[38].mac 	sentPkCount:count 	760680
attr interpolationmode  node
attr source  sentPkCount
attr title  "pkCount, count"
scalar ldMacTest.host[38].mac 	discardPkCount:count 	183640
attr interpolationmode  node
attr source  discardPkCount
attr title  "discardPkCount, count"
scalar ldMacTest.host[38].mac 	queueTime:mean 	165.39308064288
attr source  queueTime
attr title  "queueTime, mean"
scalar ldMacTest.host[39].app 	errorCount:count 	0
attr interpolationmode  node
attr source  errorCount
attr title  "errorCount, count"
scalar ldMacTest.host[39].app 	appPkCount:count 	957270
attr interpolationmode  node
attr source  appPkCount
attr title  "appPkCount, count"
scalar ldMacTest.host[39].mac 	time10:count 	453
attr source  time10
attr title  "time10, count"
scalar ldMacTest.host[39].mac 	time9:count 	32
attr source  time9
attr title  "time9, count"
scalar ldMacTest.host[39].mac 	time8:count 	19
attr source  time8
attr title  "time8, count"
scalar ldMacTest.host[39].mac 	time7:count 	18
attr source  time7
attr title  "time7, count"
scalar ldMacTest.host[39].mac 	time6:count 	17
attr source  time6
attr title  "time6, count"
scalar ldMacTest.host[39].mac 	time5:count 	50
attr source  time5
attr title  "time5, count"
scalar ldMacTest.host[39].mac 	time4:count 	60
attr source  time4
attr title  "time4, count"
scalar ldMacTest.host[39].mac 	time3:count 	87
attr source  time3
attr title  "time3, count"
scalar ldMacTest.host[39].mac 	time2:count 	96
attr source  time2
attr title  "time2, count"
scalar ldMacTest.host[39].mac 	time1:count 	12
attr source  time1
attr title  "time1, count"
scalar ldMacTest.host[39].mac 	time0:count 	844
attr source  time0
attr title  "time0, count"
scalar ldMacTest.host[39].mac 	sentPkCount:count 	789599
attr interpolationmode  node
attr source  sentPkCount
attr title  "pkCount, count"
scalar ldMacTest.host[39].mac 	discardPkCount:count 	147878
attr interpolationmode  node
attr source  discardPkCount
attr title  "discardPkCount, count"
scalar ldMacTest.host[39].mac 	queueTime:mean 	157.01825831707
attr source  queueTime
attr title  "queueTime, mean"
scalar ldMacTest.host[40].app 	errorCount:count 	0
attr interpolationmode  node
attr source  errorCount
attr title  "errorCount, count"
scalar ldMacTest.host[40].app 	appPkCount:count 	954913
attr interpolationmode  node
attr source  appPkCount
attr title  "appPkCount, count"
scalar ldMacTest.host[40].mac 	time10:count 	18
attr source  time10
attr title  "time10, count"
scalar ldMacTest.host[40].mac 	time9:count 	38
attr source  time9
attr title  "time9, count"
scalar ldMacTest.host[40].mac 	time8:count 	39
attr source  time8
attr title  "time8, count"
scalar ldMacTest.host[40].mac 	time7:count 	44
attr source  time7
attr title  "time7, count"
scalar ldMacTest.host[40].mac 	time6:count 	899
attr source  time6
attr title  "time6, count"
scalar ldMacTest.host[40].mac 	time5:count 	188
attr source  time5
attr title  "time5, count"
scalar ldMacTest.host[40].mac 	time4:count 	77
attr source  time4
attr title  "time4, count"
scalar ldMacTest.host[40].mac 	time3:count 	0
attr source  time3
attr title  "time3, count"
scalar ldMacTest.host[40].mac 	time2:count 	0
attr source  time2
attr title  "time2, count"
scalar ldMacTest.host[40].mac 	time1:count 	0
attr source  time1
attr title  "time1, count"
scalar ldMacTest.host[40].mac 	time0:count 	1303
attr source  time0
attr title  "time0, count"
scalar ldMacTest.host[40].mac 	sentPkCount:count 	753806
attr interpolationmode  node
attr source  sentPkCount
attr title  "pkCount, count"
scalar ldMacTest.host[40].mac 	discardPkCount:count 	181206
attr interpolationmode  node
attr source  discardPkCount
attr title  "discardPkCount, count"
scalar ldMacTest.host[40].mac 	queueTime:mean 	161.92471007746
attr source  queueTime
attr title  "queueTime, mean"
scalar ldMacTest.host[41].app 	errorCount:count 	0
attr interpolationmode  node
attr source  errorCount
attr title  "errorCount, count"
scalar ldMacTest.host[41].app 	appPkCount:count 	946331
attr interpolationmode  node
attr source  appPkCount
attr title  "appPkCount, count"
scalar ldMacTest.host[41].mac 	time10:count 	0
attr source  time10
attr title  "time10, count"
scalar ldMacTest.host[41].mac 	time9:count 	0
attr source  time9
attr title  "time9, count"
scalar ldMacTest.host[41].mac 	time8:count 	0
attr source  time8
attr title  "time8, count"
scalar ldMacTest.host[41].mac 	time7:count 	11
attr source  time7
attr title  "time7, count"
scalar ldMacTest.host[41].mac 	time6:count 	113
attr source  time6
attr title  "time6, count"
scalar ldMacTest.host[41].mac 	time5:count 	867
attr source  time5
attr title  "time5, count"
scalar ldMacTest.host[41].mac 	time4:count 	403
attr source  time4
attr title  "time4, count"
scalar ldMacTest.host[41].mac 	time3:count 	49
attr source  time3
attr title  "time3, count"
scalar ldMacTest.host[41].mac 	time2:count 	0
attr source  time2
attr title  "time2, count"
scalar ldMacTest.host[41].mac 	time1:count 	0
attr source  time1
attr title  "time1, count"
scalar ldMacTest.host[41].mac 	time0:count 	1443
attr source  time0
attr title  "time0, count"
scalar ldMacTest.host[41].mac 	sentPkCount:count 	772638
attr interpolationmode  node
attr source  sentPkCount
attr title  "pkCount, count"
scalar ldMacTest.host[41].mac 	discardPkCount:count 	154458
attr interpolationmode  node
attr source  discardPkCount
attr title  "discardPkCount, count"
scalar ldMacTest.host[41].mac 	queueTime:mean 	158.81495422601
attr source  queueTime
attr title  "queueTime, mean"
scalar ldMacTest.host[42].app 	errorCount:count 	0
attr interpolationmode  node
attr source  errorCount
attr title  "errorCount, count"
scalar ldMacTest.host[42].app 	appPkCount:count 	935095
attr interpolationmode  node
attr source  appPkCount
attr title  "appPkCount, count"
scalar ldMacTest.host[42].mac 	time10:count 	53
attr source  time10
attr title  "time10, count"
scalar ldMacTest.host[42].mac 	time9:count 	40
attr source  time9
attr title  "time9, count"
scalar ldMacTest.host[42].mac 	time8:count 	42
attr source  time8
attr title  "time8, count"
scalar ldMacTest.host[42].mac 	time7:count 	46
attr source  time7
attr title  "time7, count"
scalar ldMacTest.host[42].mac 	time6:count 	999
attr source  time6
attr title  "time6, count"
scalar ldMacTest.host[42].mac 	time5:count 	19
attr source  time5
attr title  "time5, count"
scalar ldMacTest.host[42].mac 	time4:count 	20
attr source  time4
attr title  "time4, count"
scalar ldMacTest.host[42].mac 	time3:count 	40
attr source  time3
attr title  "time3, count"
scalar ldMacTest.host[42].mac 	time2:count 	31
attr source  time2
attr title  "time2, count"
scalar ldMacTest.host[42].mac 	time1:count 	0
attr source  time1
attr title  "time1, count"
scalar ldMacTest.host[42].mac 	time0:count 	1290
attr source  time0
attr title  "time0, count"
scalar ldMacTest.host[42].mac 	sentPkCount:count 	723173
attr interpolationmode  node
attr source  sentPkCount
attr title  "pkCount, count"
scalar ldMacTest.host[42].mac 	discardPkCount:count 	122845
attr interpolationmode  node
attr source  discardPkCount
attr title  "discardPkCount, count"
scalar ldMacTest.host[42].mac 	queueTime:mean 	140.28726524422
attr source  queueTime
attr title  "queueTime, mean"
scalar ldMacTest.host[43].app 	errorCount:count 	0
attr interpolationmode  node
attr source  errorCount
attr title  "errorCount, count"
scalar ldMacTest.host[43].app 	appPkCount:count 	946711
attr interpolationmode  node
attr source  appPkCount
attr title  "appPkCount, count"
scalar ldMacTest.host[43].mac 	time10:count 	0
attr source  time10
attr title  "time10, count"
scalar ldMacTest.host[43].mac 	time9:count 	704
attr source  time9
attr title  "time9, count"
scalar ldMacTest.host[43].mac 	time8:count 	32
attr source  time8
attr title  "time8, count"
scalar ldMacTest.host[43].mac 	time7:count 	60
attr source  time7
attr title  "time7, count"
scalar ldMacTest.host[43].mac 	time6:count 	55
attr source  time6
attr title  "time6, count"
scalar ldMacTest.host[43].mac 	time5:count 	67
attr source  time5
attr title  "time5, count"
scalar ldMacTest.host[43].mac 	time4:count 	62
attr source  time4
attr title  "time4, count"
scalar ldMacTest.host[43].mac 	time3:count 	33
attr source  time3
attr title  "time3, count"
scalar ldMacTest.host[43].mac 	time2:count 	34
attr source  time2
attr title  "time2, count"
scalar ldMacTest.host[43].mac 	time1:count 	28
attr source  time1
attr title  "time1, count"
scalar ldMacTest.host[43].mac 	time0:count 	1075
attr source  time0
attr title  "time0, count"
scalar ldMacTest.host[43].mac 	sentPkCount:count 	769644
attr interpolationmode  node
attr source  sentPkCount
attr title  "pkCount, count"
scalar ldMacTest.host[43].mac 	discardPkCount:count 	157227
attr interpolationmode  node
attr source  discardPkCount
attr title  "discardPkCount, count"
scalar ldMacTest.host[43].mac 	queueTime:mean 	160.69288150385
attr source  queueTime
attr title  "queueTime, mean"
scalar ldMacTest.host[44].app 	errorCount:count 	0
attr interpolationmode  node
attr source  errorCount
attr title  "errorCount, count"
scalar ldMacTest.host[44].app 	appPkCount:count 	975934
attr interpolationmode  node
attr source  appPkCount
attr title  "appPkCount, count"
scalar ldMacTest.host[44].mac 	time10:count 	0
attr source  time10
attr title  "time10, count"
scalar ldMacTest.host[44].mac 	time9:count 	0
attr source  time9
attr title  "time9, count"
scalar ldMacTest.host[44].mac 	time8:count 	416
attr source  time8
attr title  "time8, count"
scalar ldMacTest.host[44].mac 	time7:count 	694
attr source  time7
attr title  "time7, count"
scalar ldMacTest.host[44].mac 	time6:count 	69
attr source  time6
attr title  "time6, count"
scalar ldMacTest.host[44].mac 	time5:count 	149
attr source  time5
attr title  "time5, count"
scalar ldMacTest.host[44].mac 	time4:count 	0
attr source  time4
attr title  "time4, count"
scalar ldMacTest.host[44].mac 	time3:count 	0
attr source  time3
attr title  "time3, count"
scalar ldMacTest.host[44].mac 	time2:count 	0
attr source  time2
attr title  "time2, count"
scalar ldMacTest.host[44].mac 	time1:count 	0
attr source  time1
attr title  "time1, count"
scalar ldMacTest.host[44].mac 	time0:count 	1328
attr source  time0
attr title  "time0, count"
scalar ldMacTest.host[44].mac 	sentPkCount:count 	765972
attr interpolationmode  node
attr source  sentPkCount
attr title  "pkCount, count"
scalar ldMacTest.host[44].mac 	discardPkCount:count 	190097
attr interpolationmode  node
attr source  discardPkCount
attr title  "discardPkCount, count"
scalar ldMacTest.host[44].mac 	queueTime:mean 	158.11893571108
attr source  queueTime
attr title  "queueTime, mean"
scalar ldMacTest.host[45].app 	errorCount:count 	0
attr interpolationmode  node
attr source  errorCount
[...]
scalar ldMacTest.host[88].mac 	time7:count 	0
attr source  time7
attr title  "time7, count"
scalar ldMacTest.host[88].mac 	time6:count 	0
attr source  time6
attr title  "time6, count"
scalar ldMacTest.host[88].mac 	time5:count 	0
attr source  time5
attr title  "time5, count"
scalar ldMacTest.host[88].mac 	time4:count 	0
attr source  time4
attr title  "time4, count"
scalar ldMacTest.host[88].mac 	time3:count 	0
attr source  time3
attr title  "time3, count"
scalar ldMacTest.host[88].mac 	time2:count 	0
attr source  time2
attr title  "time2, count"
scalar ldMacTest.host[88].mac 	time1:count 	0
attr source  time1
attr title  "time1, count"
scalar ldMacTest.host[88].mac 	time0:count 	400
attr source  time0
attr title  "time0, count"
scalar ldMacTest.host[88].mac 	sentPkCount:count 	713858
attr interpolationmode  node
attr source  sentPkCount
attr title  "pkCount, count"
scalar ldMacTest.host[88].mac 	discardPkCount:count 	171010
attr interpolationmode  node
attr source  discardPkCount
attr title  "discardPkCount, count"
scalar ldMacTest.host[88].mac 	queueTime:mean 	174.42778227239
attr source  queueTime
attr title  "queueTime, mean"
scalar ldMacTest.host[89].app 	errorCount:count 	0
attr interpolationmode  node
attr source  errorCount
attr title  "errorCount, count"
scalar ldMacTest.host[89].app 	appPkCount:count 	937454
attr interpolationmode  node
attr source  appPkCount
attr title  "appPkCount, count"
scalar ldMacTest.host[89].mac 	time10:count 	805
attr source  time10
attr title  "time10, count"
scalar ldMacTest.host[89].mac 	time9:count 	65
attr source  time9
attr title  "time9, count"
scalar ldMacTest.host[89].mac 	time8:count 	61
attr source  time8
attr title  "time8, count"
scalar ldMacTest.host[89].mac 	time7:count 	64
attr source  time7
attr title  "time7, count"
scalar ldMacTest.host[89].mac 	time6:count 	94
attr source  time6
attr title  "time6, count"
scalar ldMacTest.host[89].mac 	time5:count 	0
attr source  time5
attr title  "time5, count"
scalar ldMacTest.host[89].mac 	time4:count 	0
attr source  time4
attr title  "time4, count"
scalar ldMacTest.host[89].mac 	time3:count 	0
attr source  time3
attr title  "time3, count"
scalar ldMacTest.host[89].mac 	time2:count 	0
attr source  time2
attr title  "time2, count"
scalar ldMacTest.host[89].mac 	time1:count 	0
attr source  time1
attr title  "time1, count"
scalar ldMacTest.host[89].mac 	time0:count 	1089
attr source  time0
attr title  "time0, count"
scalar ldMacTest.host[89].mac 	sentPkCount:count 	750225
attr interpolationmode  node
attr source  sentPkCount
attr title  "pkCount, count"
scalar ldMacTest.host[89].mac 	discardPkCount:count 	167598
attr interpolationmode  node
attr source  discardPkCount
attr title  "discardPkCount, count"
scalar ldMacTest.host[89].mac 	queueTime:mean 	161.72172691092
attr source  queueTime
attr title  "queueTime, mean"
scalar ldMacTest.host[90].app 	errorCount:count 	0
attr interpolationmode  node
attr source  errorCount
attr title  "errorCount, count"
scalar ldMacTest.host[90].app 	appPkCount:count 	963576
attr interpolationmode  node
attr source  appPkCount
attr title  "appPkCount, count"
scalar ldMacTest.host[90].mac 	time10:count 	68
attr source  time10
attr title  "time10, count"
scalar ldMacTest.host[90].mac 	time9:count 	45
attr source  time9
attr title  "time9, count"
scalar ldMacTest.host[90].mac 	time8:count 	722
attr source  time8
attr title  "time8, count"
scalar ldMacTest.host[90].mac 	time7:count 	160
attr source  time7
attr title  "time7, count"
scalar ldMacTest.host[90].mac 	time6:count 	25
attr source  time6
attr title  "time6, count"
scalar ldMacTest.host[90].mac 	time5:count 	0
attr source  time5
attr title  "time5, count"
scalar ldMacTest.host[90].mac 	time4:count 	0
attr source  time4
attr title  "time4, count"
scalar ldMacTest.host[90].mac 	time3:count 	0
attr source  time3
attr title  "time3, count"
scalar ldMacTest.host[90].mac 	time2:count 	0
attr source  time2
attr title  "time2, count"
scalar ldMacTest.host[90].mac 	time1:count 	0
attr source  time1
attr title  "time1, count"
scalar ldMacTest.host[90].mac 	time0:count 	1020
attr source  time0
attr title  "time0, count"
scalar ldMacTest.host[90].mac 	sentPkCount:count 	701027
attr interpolationmode  node
attr source  sentPkCount
attr title  "pkCount, count"
scalar ldMacTest.host[90].mac 	discardPkCount:count 	161521
attr interpolationmode  node
attr source  discardPkCount
attr title  "discardPkCount, count"
scalar ldMacTest.host[90].mac 	queueTime:mean 	155.51589362351
attr source  queueTime
attr title  "queueTime, mean"
scalar ldMacTest.host[91].app 	errorCount:count 	0
attr interpolationmode  node
attr source  errorCount
attr title  "errorCount, count"
scalar ldMacTest.host[91].app 	appPkCount:count 	982394
attr interpolationmode  node
attr source  appPkCount
attr title  "appPkCount, count"
scalar ldMacTest.host[91].mac 	time10:count 	130
attr source  time10
attr title  "time10, count"
scalar ldMacTest.host[91].mac 	time9:count 	20
attr source  time9
attr title  "time9, count"
scalar ldMacTest.host[91].mac 	time8:count 	20
attr source  time8
attr title  "time8, count"
scalar ldMacTest.host[91].mac 	time7:count 	21
attr source  time7
attr title  "time7, count"
scalar ldMacTest.host[91].mac 	time6:count 	39
attr source  time6
attr title  "time6, count"
scalar ldMacTest.host[91].mac 	time5:count 	122
attr source  time5
attr title  "time5, count"
scalar ldMacTest.host[91].mac 	time4:count 	30
attr source  time4
attr title  "time4, count"
scalar ldMacTest.host[91].mac 	time3:count 	23
attr source  time3
attr title  "time3, count"
scalar ldMacTest.host[91].mac 	time2:count 	66
attr source  time2
attr title  "time2, count"
scalar ldMacTest.host[91].mac 	time1:count 	0
attr source  time1
attr title  "time1, count"
scalar ldMacTest.host[91].mac 	time0:count 	471
attr source  time0
attr title  "time0, count"
scalar ldMacTest.host[91].mac 	sentPkCount:count 	721437
attr interpolationmode  node
attr source  sentPkCount
attr title  "pkCount, count"
scalar ldMacTest.host[91].mac 	discardPkCount:count 	181245
attr interpolationmode  node
attr source  discardPkCount
attr title  "discardPkCount, count"
scalar ldMacTest.host[91].mac 	queueTime:mean 	175.28909278105
attr source  queueTime
attr title  "queueTime, mean"
scalar ldMacTest.host[92].app 	errorCount:count 	0
attr interpolationmode  node
attr source  errorCount
attr title  "errorCount, count"
scalar ldMacTest.host[92].app 	appPkCount:count 	967985
attr interpolationmode  node
attr source  appPkCount
attr title  "appPkCount, count"
scalar ldMacTest.host[92].mac 	time10:count 	577
attr source  time10
attr title  "time10, count"
scalar ldMacTest.host[92].mac 	time9:count 	74
attr source  time9
attr title  "time9, count"
scalar ldMacTest.host[92].mac 	time8:count 	76
attr source  time8
attr title  "time8, count"
scalar ldMacTest.host[92].mac 	time7:count 	115
attr source  time7
attr title  "time7, count"
scalar ldMacTest.host[92].mac 	time6:count 	58
attr source  time6
attr title  "time6, count"
scalar ldMacTest.host[92].mac 	time5:count 	17
attr source  time5
attr title  "time5, count"
scalar ldMacTest.host[92].mac 	time4:count 	4
attr source  time4
attr title  "time4, count"
scalar ldMacTest.host[92].mac 	time3:count 	0
attr source  time3
attr title  "time3, count"
scalar ldMacTest.host[92].mac 	time2:count 	0
attr source  time2
attr title  "time2, count"
scalar ldMacTest.host[92].mac 	time1:count 	0
attr source  time1
attr title  "time1, count"
scalar ldMacTest.host[92].mac 	time0:count 	921
attr source  time0
attr title  "time0, count"
scalar ldMacTest.host[92].mac 	sentPkCount:count 	747905
attr interpolationmode  node
attr source  sentPkCount
attr title  "pkCount, count"
scalar ldMacTest.host[92].mac 	discardPkCount:count 	200280
attr interpolationmode  node
attr source  discardPkCount
attr title  "discardPkCount, count"
scalar ldMacTest.host[92].mac 	queueTime:mean 	172.38162140209
attr source  queueTime
attr title  "queueTime, mean"
scalar ldMacTest.host[93].app 	errorCount:count 	0
attr interpolationmode  node
attr source  errorCount
attr title  "errorCount, count"
scalar ldMacTest.host[93].app 	appPkCount:count 	934316
attr interpolationmode  node
attr source  appPkCount
attr title  "appPkCount, count"
scalar ldMacTest.host[93].mac 	time10:count 	0
attr source  time10
attr title  "time10, count"
scalar ldMacTest.host[93].mac 	time9:count 	0
attr source  time9
attr title  "time9, count"
scalar ldMacTest.host[93].mac 	time8:count 	0
attr source  time8
attr title  "time8, count"
scalar ldMacTest.host[93].mac 	time7:count 	0
attr source  time7
attr title  "time7, count"
scalar ldMacTest.host[93].mac 	time6:count 	815
attr source  time6
attr title  "time6, count"
scalar ldMacTest.host[93].mac 	time5:count 	226
attr source  time5
attr title  "time5, count"
scalar ldMacTest.host[93].mac 	time4:count 	126
attr source  time4
attr title  "time4, count"
scalar ldMacTest.host[93].mac 	time3:count 	0
attr source  time3
attr title  "time3, count"
scalar ldMacTest.host[93].mac 	time2:count 	0
attr source  time2
attr title  "time2, count"
scalar ldMacTest.host[93].mac 	time1:count 	0
attr source  time1
attr title  "time1, count"
scalar ldMacTest.host[93].mac 	time0:count 	1167
attr source  time0
attr title  "time0, count"
scalar ldMacTest.host[93].mac 	sentPkCount:count 	774033
attr interpolationmode  node
attr source  sentPkCount
attr title  "pkCount, count"
scalar ldMacTest.host[93].mac 	discardPkCount:count 	140382
attr interpolationmode  node
attr source  discardPkCount
attr title  "discardPkCount, count"
scalar ldMacTest.host[93].mac 	queueTime:mean 	150.60976575661
attr source  queueTime
attr title  "queueTime, mean"
scalar ldMacTest.host[94].app 	errorCount:count 	0
attr interpolationmode  node
attr source  errorCount
attr title  "errorCount, count"
scalar ldMacTest.host[94].app 	appPkCount:count 	955446
attr interpolationmode  node
attr source  appPkCount
attr title  "appPkCount, count"
scalar ldMacTest.host[94].mac 	time10:count 	0
attr source  time10
attr title  "time10, count"
scalar ldMacTest.host[94].mac 	time9:count 	0
attr source  time9
attr title  "time9, count"
scalar ldMacTest.host[94].mac 	time8:count 	555
attr source  time8
attr title  "time8, count"
scalar ldMacTest.host[94].mac 	time7:count 	493
attr source  time7
attr title  "time7, count"
scalar ldMacTest.host[94].mac 	time6:count 	74
attr source  time6
attr title  "time6, count"
scalar ldMacTest.host[94].mac 	time5:count 	72
attr source  time5
attr title  "time5, count"
scalar ldMacTest.host[94].mac 	time4:count 	37
attr source  time4
attr title  "time4, count"
scalar ldMacTest.host[94].mac 	time3:count 	38
attr source  time3
attr title  "time3, count"
scalar ldMacTest.host[94].mac 	time2:count 	40
attr source  time2
attr title  "time2, count"
scalar ldMacTest.host[94].mac 	time1:count 	32
attr source  time1
attr title  "time1, count"
scalar ldMacTest.host[94].mac 	time0:count 	1341
attr source  time0
attr title  "time0, count"
scalar ldMacTest.host[94].mac 	sentPkCount:count 	768449
attr interpolationmode  node
attr source  sentPkCount
attr title  "pkCount, count"
scalar ldMacTest.host[94].mac 	discardPkCount:count 	167346
attr interpolationmode  node
attr source  discardPkCount
attr title  "discardPkCount, count"
scalar ldMacTest.host[94].mac 	queueTime:mean 	157.6020198038
attr source  queueTime
attr title  "queueTime, mean"
scalar ldMacTest.host[95].app 	errorCount:count 	0
attr interpolationmode  node
attr source  errorCount
attr title  "errorCount, count"
scalar ldMacTest.host[95].app 	appPkCount:count 	954482
attr interpolationmode  node
attr source  appPkCount
attr title  "appPkCount, count"
scalar ldMacTest.host[95].mac 	time10:count 	57
attr source  time10
attr title  "time10, count"
scalar ldMacTest.host[95].mac 	time9:count 	35
attr source  time9
attr title  "time9, count"
scalar ldMacTest.host[95].mac 	time8:count 	522
attr source  time8
attr title  "time8, count"
scalar ldMacTest.host[95].mac 	time7:count 	452
attr source  time7
attr title  "time7, count"
scalar ldMacTest.host[95].mac 	time6:count 	41
attr source  time6
attr title  "time6, count"
scalar ldMacTest.host[95].mac 	time5:count 	41
attr source  time5
attr title  "time5, count"
scalar ldMacTest.host[95].mac 	time4:count 	43
attr source  time4
attr title  "time4, count"
scalar ldMacTest.host[95].mac 	time3:count 	47
attr source  time3
attr title  "time3, count"
scalar ldMacTest.host[95].mac 	time2:count 	54
attr source  time2
attr title  "time2, count"
scalar ldMacTest.host[95].mac 	time1:count 	0
attr source  time1
attr title  "time1, count"
scalar ldMacTest.host[95].mac 	time0:count 	1292
attr source  time0
attr title  "time0, count"
scalar ldMacTest.host[95].mac 	sentPkCount:count 	752890
attr interpolationmode  node
attr source  sentPkCount
attr title  "pkCount, count"
scalar ldMacTest.host[95].mac 	discardPkCount:count 	142572
attr interpolationmode  node
attr source  discardPkCount
attr title  "discardPkCount, count"
scalar ldMacTest.host[95].mac 	queueTime:mean 	156.43408401481
attr source  queueTime
attr title  "queueTime, mean"
scalar ldMacTest.host[96].app 	errorCount:count 	0
attr interpolationmode  node
attr source  errorCount
attr title  "errorCount, count"
scalar ldMacTest.host[96].app 	appPkCount:count 	956283
attr interpolationmode  node
attr source  appPkCount
attr title  "appPkCount, count"
scalar ldMacTest.host[96].mac 	time10:count 	55
attr source  time10
attr title  "time10, count"
scalar ldMacTest.host[96].mac 	time9:count 	36
attr source  time9
attr title  "time9, count"
scalar ldMacTest.host[96].mac 	time8:count 	37
attr source  time8
attr title  "time8, count"
scalar ldMacTest.host[96].mac 	time7:count 	38
attr source  time7
attr title  "time7, count"
scalar ldMacTest.host[96].mac 	time6:count 	40
attr source  time6
attr title  "time6, count"
scalar ldMacTest.host[96].mac 	time5:count 	225
attr source  time5
attr title  "time5, count"
scalar ldMacTest.host[96].mac 	time4:count 	750
attr source  time4
attr title  "time4, count"
scalar ldMacTest.host[96].mac 	time3:count 	18
attr source  time3
attr title  "time3, count"
scalar ldMacTest.host[96].mac 	time2:count 	0
attr source  time2
attr title  "time2, count"
scalar ldMacTest.host[96].mac 	time1:count 	0
attr source  time1
attr title  "time1, count"
scalar ldMacTest.host[96].mac 	time0:count 	1199
attr source  time0
attr title  "time0, count"
scalar ldMacTest.host[96].mac 	sentPkCount:count 	566235
attr interpolationmode  node
attr source  sentPkCount
attr title  "pkCount, count"
scalar ldMacTest.host[96].mac 	discardPkCount:count 	112206
attr interpolationmode  node
attr source  discardPkCount
attr title  "discardPkCount, count"
scalar ldMacTest.host[96].mac 	queueTime:mean 	141.2873036183
attr source  queueTime
attr title  "queueTime, mean"
scalar ldMacTest.host[97].app 	errorCount:count 	0
attr interpolationmode  node
attr source  errorCount
attr title  "errorCount, count"
scalar ldMacTest.host[97].app 	appPkCount:count 	982222
attr interpolationmode  node
attr source  appPkCount
attr title  "appPkCount, count"
scalar ldMacTest.host[97].mac 	time10:count 	75
attr source  time10
attr title  "time10, count"
scalar ldMacTest.host[97].mac 	time9:count 	40
attr source  time9
attr title  "time9, count"
scalar ldMacTest.host[97].mac 	time8:count 	43
attr source  time8
attr title  "time8, count"
scalar ldMacTest.host[97].mac 	time7:count 	57
attr source  time7
attr title  "time7, count"
scalar ldMacTest.host[97].mac 	time6:count 	129
attr source  time6
attr title  "time6, count"
scalar ldMacTest.host[97].mac 	time5:count 	48
attr source  time5
attr title  "time5, count"
scalar ldMacTest.host[97].mac 	time4:count 	839
attr source  time4
attr title  "time4, count"
scalar ldMacTest.host[97].mac 	time3:count 	0
attr source  time3
attr title  "time3, count"
scalar ldMacTest.host[97].mac 	time2:count 	0
attr source  time2
attr title  "time2, count"
scalar ldMacTest.host[97].mac 	time1:count 	0
attr source  time1
attr title  "time1, count"
scalar ldMacTest.host[97].mac 	time0:count 	1231
attr source  time0
attr title  "time0, count"
scalar ldMacTest.host[97].mac 	sentPkCount:count 	733935
attr interpolationmode  node
attr source  sentPkCount
attr title  "pkCount, count"
scalar ldMacTest.host[97].mac 	discardPkCount:count 	196168
attr interpolationmode  node
attr source  discardPkCount
attr title  "discardPkCount, count"
scalar ldMacTest.host[97].mac 	queueTime:mean 	155.88517948802
attr source  queueTime
attr title  "queueTime, mean"
scalar ldMacTest.host[98].app 	errorCount:count 	0
attr interpolationmode  node
attr source  errorCount
attr title  "errorCount, count"
scalar ldMacTest.host[98].app 	appPkCount:count 	946322
attr interpolationmode  node
attr source  appPkCount
attr title  "appPkCount, count"
scalar ldMacTest.host[98].mac 	time10:count 	58
attr source  time10
attr title  "time10, count"
scalar ldMacTest.host[98].mac 	time9:count 	86
attr source  time9
attr title  "time9, count"
scalar ldMacTest.host[98].mac 	time8:count 	17
attr source  time8
attr title  "time8, count"
scalar ldMacTest.host[98].mac 	time7:count 	16
attr source  time7
attr title  "time7, count"
scalar ldMacTest.host[98].mac 	time6:count 	17
attr source  time6
attr title  "time6, count"
scalar ldMacTest.host[98].mac 	time5:count 	17
attr source  time5
attr title  "time5, count"
scalar ldMacTest.host[98].mac 	time4:count 	932
attr source  time4
attr title  "time4, count"
scalar ldMacTest.host[98].mac 	time3:count 	72
attr source  time3
attr title  "time3, count"
scalar ldMacTest.host[98].mac 	time2:count 	0
attr source  time2
attr title  "time2, count"
scalar ldMacTest.host[98].mac 	time1:count 	0
attr source  time1
attr title  "time1, count"
scalar ldMacTest.host[98].mac 	time0:count 	1215
attr source  time0
attr title  "time0, count"
scalar ldMacTest.host[98].mac 	sentPkCount:count 	646365
attr interpolationmode  node
attr source  sentPkCount
attr title  "pkCount, count"
scalar ldMacTest.host[98].mac 	discardPkCount:count 	123040
attr interpolationmode  node
attr source  discardPkCount
attr title  "discardPkCount, count"
scalar ldMacTest.host[98].mac 	queueTime:mean 	144.9935595573
attr source  queueTime
attr title  "queueTime, mean"
scalar ldMacTest.host[99].app 	errorCount:count 	0
attr interpolationmode  node
attr source  errorCount
attr title  "errorCount, count"
scalar ldMacTest.host[99].app 	appPkCount:count 	953817
attr interpolationmode  node
attr source  appPkCount
attr title  "appPkCount, count"
scalar ldMacTest.host[99].mac 	time10:count 	0
attr source  time10
attr title  "time10, count"
scalar ldMacTest.host[99].mac 	time9:count 	346
attr source  time9
attr title  "time9, count"
scalar ldMacTest.host[99].mac 	time8:count 	426
attr source  time8
attr title  "time8, count"
scalar ldMacTest.host[99].mac 	time7:count 	71
attr source  time7
attr title  "time7, count"
scalar ldMacTest.host[99].mac 	time6:count 	62
attr source  time6
attr title  "time6, count"
scalar ldMacTest.host[99].mac 	time5:count 	68
attr source  time5
attr title  "time5, count"
scalar ldMacTest.host[99].mac 	time4:count 	92
attr source  time4
attr title  "time4, count"
scalar ldMacTest.host[99].mac 	time3:count 	6
attr source  time3
attr title  "time3, count"
scalar ldMacTest.host[99].mac 	time2:count 	0
attr source  time2
attr title  "time2, count"
scalar ldMacTest.host[99].mac 	time1:count 	0
attr source  time1
attr title  "time1, count"
scalar ldMacTest.host[99].mac 	time0:count 	1071
attr source  time0
attr title  "time0, count"
scalar ldMacTest.host[99].mac 	sentPkCount:count 	767927
attr interpolationmode  node
attr source  sentPkCount
attr title  "pkCount, count"
scalar ldMacTest.host[99].mac 	discardPkCount:count 	165934
attr interpolationmode  node
attr source  discardPkCount
attr title  "discardPkCount, count"
scalar ldMacTest.host[99].mac 	queueTime:mean 	153.79063011251
attr source  queueTime
attr title  "queueTime, mean"
