version 2
run LD-hostNum-5-20170327-21:43:08-9604
attr configname LD-hostNum
attr datetime 20170327-21:43:08
attr experiment LD-hostNum
attr inifile omnetpp.ini
attr iterationvars $0=60
attr iterationvars2 "$0=60, $repetition=0"
attr measurement $0=60
attr network ldMacTest
attr processid 9604
attr repetition 0
attr replication #0
attr resultdir results
attr runnumber 5
attr seedset 5
param **.ap.macType "\"LdApMac\""
param **.ap.mobility.initFromDisplayString false
param **.ap.mobility.initialX 300000m
param **.ap.mobility.initialY 300000m
param **.ap.mobility.initialZ 0m
param **.ap.mobilityType "\"StationaryMobility\""
param **.constraintAreaMaxX 600000m
param **.constraintAreaMaxY 600000m
param **.constraintAreaMaxZ 0m
param **.constraintAreaMinX 0m
param **.constraintAreaMinY 0m
param **.constraintAreaMinZ 0m
param **.hostNum 50
param **.host[*].app.burstInterval exponential(1.5s)
param **.host[*].app.burstNum "normal(200, 50)"
param **.host[*].app.packetLength 4096b
param **.host[*].app.startTime 0s
param **.host[*].appType "\"BurstGenerator\""
param **.host[*].mac.communicationRange 300000m
param **.host[*].mac.reqLength 100b
param **.host[*].mac.txRate 100000000bps
param **.host[*].macType "\"LdHostMac\""
param **.host[*].mobility.initFromDisplayString false
param **.host[*].mobility.speed uniform(80mps,100mps)
param **.host[*].mobility.updateInterval 1s
param **.host[*].mobility.waitTime 0s
param **.host[*].mobilityType "\"RandomWPMobility\""
param **.reqSlotNum 20
param **.slotLength 0.1ms
param **.slotNum 1000

scalar ldMacTest.ap.mac 	pkCount10:count 	3455185
attr interpolationmode  node
attr source  pkCount10
attr title  "pkCount10, count"
scalar ldMacTest.ap.mac 	pkCount9:count 	5091114
attr interpolationmode  node
attr source  pkCount9
attr title  "pkCount9, count"
scalar ldMacTest.ap.mac 	pkCount8:count 	6820105
attr interpolationmode  node
attr source  pkCount8
attr title  "pkCount8, count"
scalar ldMacTest.ap.mac 	pkCount7:count 	9318834
attr interpolationmode  node
attr source  pkCount7
attr title  "pkCount7, count"
scalar ldMacTest.ap.mac 	pkCount6:count 	8828658
attr interpolationmode  node
attr source  pkCount6
attr title  "pkCount6, count"
scalar ldMacTest.ap.mac 	pkCount5:count 	8471523
attr interpolationmode  node
attr source  pkCount5
attr title  "pkCount5, count"
scalar ldMacTest.ap.mac 	pkCount4:count 	6034034
attr interpolationmode  node
attr source  pkCount4
attr title  "pkCount4, count"
scalar ldMacTest.ap.mac 	pkCount3:count 	3857997
attr interpolationmode  node
attr source  pkCount3
attr title  "pkCount3, count"
scalar ldMacTest.ap.mac 	pkCount2:count 	2514936
attr interpolationmode  node
attr source  pkCount2
attr title  "pkCount2, count"
scalar ldMacTest.ap.mac 	pkCount1:count 	639002
attr interpolationmode  node
attr source  pkCount1
attr title  "pkCount1, count"
scalar ldMacTest.ap.mac 	pkCount:count 	55031388
attr interpolationmode  node
attr source  pkCount
attr title  "pkCount, count"
scalar ldMacTest.host[0].app 	errorCount:count 	0
attr interpolationmode  node
attr source  errorCount
attr title  "errorCount, count"
scalar ldMacTest.host[0].app 	appPkCount:count 	956877
attr interpolationmode  node
attr source  appPkCount
attr title  "appPkCount, count"
scalar ldMacTest.host[0].mac 	time10:count 	4918
attr source  time10
attr title  "time10, count"
scalar ldMacTest.host[0].mac 	time9:count 	3513
attr source  time9
attr title  "time9, count"
scalar ldMacTest.host[0].mac 	time8:count 	3981
attr source  time8
attr title  "time8, count"
scalar ldMacTest.host[0].mac 	time7:count 	7066
attr source  time7
attr title  "time7, count"
scalar ldMacTest.host[0].mac 	time6:count 	7005
attr source  time6
attr title  "time6, count"
scalar ldMacTest.host[0].mac 	time5:count 	7065
attr source  time5
attr title  "time5, count"
scalar ldMacTest.host[0].mac 	time4:count 	7114
attr source  time4
attr title  "time4, count"
scalar ldMacTest.host[0].mac 	time3:count 	7241
attr source  time3
attr title  "time3, count"
scalar ldMacTest.host[0].mac 	time2:count 	8041
attr source  time2
attr title  "time2, count"
scalar ldMacTest.host[0].mac 	time1:count 	4978
attr source  time1
attr title  "time1, count"
scalar ldMacTest.host[0].mac 	time0:count 	60922
attr source  time0
attr title  "time0, count"
scalar ldMacTest.host[0].mac 	sentPkCount:count 	841452
attr interpolationmode  node
attr source  sentPkCount
attr title  "pkCount, count"
scalar ldMacTest.host[0].mac 	discardPkCount:count 	0
attr interpolationmode  node
attr source  discardPkCount
attr title  "discardPkCount, count"
scalar ldMacTest.host[0].mac 	queueTime:mean 	0.1017401887189
attr source  queueTime
attr title  "queueTime, mean"
scalar ldMacTest.host[1].app 	errorCount:count 	0
attr interpolationmode  node
attr source  errorCount
attr title  "errorCount, count"
scalar ldMacTest.host[1].app 	appPkCount:count 	936844
attr interpolationmode  node
attr source  appPkCount
attr title  "appPkCount, count"
scalar ldMacTest.host[1].mac 	time10:count 	0
attr source  time10
attr title  "time10, count"
scalar ldMacTest.host[1].mac 	time9:count 	0
attr source  time9
attr title  "time9, count"
scalar ldMacTest.host[1].mac 	time8:count 	9307
attr source  time8
attr title  "time8, count"
scalar ldMacTest.host[1].mac 	time7:count 	28053
attr source  time7
attr title  "time7, count"
scalar ldMacTest.host[1].mac 	time6:count 	7253
attr source  time6
attr title  "time6, count"
scalar ldMacTest.host[1].mac 	time5:count 	7760
attr source  time5
attr title  "time5, count"
scalar ldMacTest.host[1].mac 	time4:count 	8991
attr source  time4
attr title  "time4, count"
scalar ldMacTest.host[1].mac 	time3:count 	7809
attr source  time3
attr title  "time3, count"
scalar ldMacTest.host[1].mac 	time2:count 	0
attr source  time2
attr title  "time2, count"
scalar ldMacTest.host[1].mac 	time1:count 	0
attr source  time1
attr title  "time1, count"
scalar ldMacTest.host[1].mac 	time0:count 	69173
attr source  time0
attr title  "time0, count"
scalar ldMacTest.host[1].mac 	sentPkCount:count 	936712
attr interpolationmode  node
attr source  sentPkCount
attr title  "pkCount, count"
scalar ldMacTest.host[1].mac 	discardPkCount:count 	0
attr interpolationmode  node
attr source  discardPkCount
attr title  "discardPkCount, count"
scalar ldMacTest.host[1].mac 	queueTime:mean 	0.11147928323994
attr source  queueTime
attr title  "queueTime, mean"
scalar ldMacTest.host[2].app 	errorCount:count 	0
attr interpolationmode  node
attr source  errorCount
attr title  "errorCount, count"
scalar ldMacTest.host[2].app 	appPkCount:count 	968690
attr interpolationmode  node
attr source  appPkCount
attr title  "appPkCount, count"
scalar ldMacTest.host[2].mac 	time10:count 	0
attr source  time10
attr title  "time10, count"
scalar ldMacTest.host[2].mac 	time9:count 	4510
attr source  time9
attr title  "time9, count"
scalar ldMacTest.host[2].mac 	time8:count 	10122
attr source  time8
attr title  "time8, count"
scalar ldMacTest.host[2].mac 	time7:count 	12398
attr source  time7
attr title  "time7, count"
scalar ldMacTest.host[2].mac 	time6:count 	9546
attr source  time6
attr title  "time6, count"
scalar ldMacTest.host[2].mac 	time5:count 	7217
attr source  time5
attr title  "time5, count"
scalar ldMacTest.host[2].mac 	time4:count 	7513
attr source  time4
attr title  "time4, count"
scalar ldMacTest.host[2].mac 	time3:count 	8581
attr source  time3
attr title  "time3, count"
scalar ldMacTest.host[2].mac 	time2:count 	9257
attr source  time2
attr title  "time2, count"
scalar ldMacTest.host[2].mac 	time1:count 	0
attr source  time1
attr title  "time1, count"
scalar ldMacTest.host[2].mac 	time0:count 	69144
attr source  time0
attr title  "time0, count"
scalar ldMacTest.host[2].mac 	sentPkCount:count 	968690
attr interpolationmode  node
attr source  sentPkCount
attr title  "pkCount, count"
scalar ldMacTest.host[2].mac 	discardPkCount:count 	0
attr interpolationmode  node
attr source  discardPkCount
attr title  "discardPkCount, count"
scalar ldMacTest.host[2].mac 	queueTime:mean 	0.10673072522174
attr source  queueTime
attr title  "queueTime, mean"
scalar ldMacTest.host[3].app 	errorCount:count 	0
attr interpolationmode  node
attr source  errorCount
attr title  "errorCount, count"
scalar ldMacTest.host[3].app 	appPkCount:count 	959823
attr interpolationmode  node
attr source  appPkCount
attr title  "appPkCount, count"
scalar ldMacTest.host[3].mac 	time10:count 	4463
attr source  time10
attr title  "time10, count"
scalar ldMacTest.host[3].mac 	time9:count 	7709
attr source  time9
attr title  "time9, count"
scalar ldMacTest.host[3].mac 	time8:count 	14593
attr source  time8
attr title  "time8, count"
scalar ldMacTest.host[3].mac 	time7:count 	19101
attr source  time7
attr title  "time7, count"
scalar ldMacTest.host[3].mac 	time6:count 	16580
attr source  time6
attr title  "time6, count"
scalar ldMacTest.host[3].mac 	time5:count 	3744
attr source  time5
attr title  "time5, count"
scalar ldMacTest.host[3].mac 	time4:count 	2731
attr source  time4
attr title  "time4, count"
scalar ldMacTest.host[3].mac 	time3:count 	0
attr source  time3
attr title  "time3, count"
scalar ldMacTest.host[3].mac 	time2:count 	0
attr source  time2
attr title  "time2, count"
scalar ldMacTest.host[3].mac 	time1:count 	0
attr source  time1
attr title  "time1, count"
scalar ldMacTest.host[3].mac 	time0:count 	68921
attr source  time0
attr title  "time0, count"
scalar ldMacTest.host[3].mac 	sentPkCount:count 	956531
attr interpolationmode  node
attr source  sentPkCount
attr title  "pkCount, count"
scalar ldMacTest.host[3].mac 	discardPkCount:count 	0
attr interpolationmode  node
attr source  discardPkCount
attr title  "discardPkCount, count"
scalar ldMacTest.host[3].mac 	queueTime:mean 	0.12120875969049
attr source  queueTime
attr title  "queueTime, mean"
scalar ldMacTest.host[4].app 	errorCount:count 	0
attr interpolationmode  node
attr source  errorCount
attr title  "errorCount, count"
scalar ldMacTest.host[4].app 	appPkCount:count 	957597
attr interpolationmode  node
attr source  appPkCount
attr title  "appPkCount, count"
scalar ldMacTest.host[4].mac 	time10:count 	2785
attr source  time10
attr title  "time10, count"
scalar ldMacTest.host[4].mac 	time9:count 	7534
attr source  time9
attr title  "time9, count"
scalar ldMacTest.host[4].mac 	time8:count 	8071
attr source  time8
attr title  "time8, count"
scalar ldMacTest.host[4].mac 	time7:count 	9096
attr source  time7
attr title  "time7, count"
scalar ldMacTest.host[4].mac 	time6:count 	15765
attr source  time6
attr title  "time6, count"
scalar ldMacTest.host[4].mac 	time5:count 	25886
attr source  time5
attr title  "time5, count"
scalar ldMacTest.host[4].mac 	time4:count 	0
attr source  time4
attr title  "time4, count"
scalar ldMacTest.host[4].mac 	time3:count 	0
attr source  time3
attr title  "time3, count"
scalar ldMacTest.host[4].mac 	time2:count 	0
attr source  time2
attr title  "time2, count"
scalar ldMacTest.host[4].mac 	time1:count 	0
attr source  time1
attr title  "time1, count"
scalar ldMacTest.host[4].mac 	time0:count 	69137
attr source  time0
attr title  "time0, count"
scalar ldMacTest.host[4].mac 	sentPkCount:count 	957327
attr interpolationmode  node
attr source  sentPkCount
attr title  "pkCount, count"
scalar ldMacTest.host[4].mac 	discardPkCount:count 	0
attr interpolationmode  node
attr source  discardPkCount
attr title  "discardPkCount, count"
scalar ldMacTest.host[4].mac 	queueTime:mean 	0.11486873975993
attr source  queueTime
attr title  "queueTime, mean"
scalar ldMacTest.host[5].app 	errorCount:count 	0
attr interpolationmode  node
attr source  errorCount
attr title  "errorCount, count"
scalar ldMacTest.host[5].app 	appPkCount:count 	976671
attr interpolationmode  node
attr source  appPkCount
attr title  "appPkCount, count"
scalar ldMacTest.host[5].mac 	time10:count 	3584
attr source  time10
attr title  "time10, count"
scalar ldMacTest.host[5].mac 	time9:count 	3675
attr source  time9
attr title  "time9, count"
scalar ldMacTest.host[5].mac 	time8:count 	11160
attr source  time8
attr title  "time8, count"
scalar ldMacTest.host[5].mac 	time7:count 	20528
attr source  time7
attr title  "time7, count"
scalar ldMacTest.host[5].mac 	time6:count 	9702
attr source  time6
attr title  "time6, count"
scalar ldMacTest.host[5].mac 	time5:count 	18226
attr source  time5
attr title  "time5, count"
scalar ldMacTest.host[5].mac 	time4:count 	0
attr source  time4
attr title  "time4, count"
scalar ldMacTest.host[5].mac 	time3:count 	0
attr source  time3
attr title  "time3, count"
scalar ldMacTest.host[5].mac 	time2:count 	0
attr source  time2
attr title  "time2, count"
scalar ldMacTest.host[5].mac 	time1:count 	0
attr source  time1
attr title  "time1, count"
scalar ldMacTest.host[5].mac 	time0:count 	66875
attr source  time0
attr title  "time0, count"
scalar ldMacTest.host[5].mac 	sentPkCount:count 	947547
attr interpolationmode  node
attr source  sentPkCount
attr title  "pkCount, count"
scalar ldMacTest.host[5].mac 	discardPkCount:count 	0
attr interpolationmode  node
attr source  discardPkCount
attr title  "discardPkCount, count"
scalar ldMacTest.host[5].mac 	queueTime:mean 	0.11934087631138
attr source  queueTime
attr title  "queueTime, mean"
scalar ldMacTest.host[6].app 	errorCount:count 	0
attr interpolationmode  node
attr source  errorCount
attr title  "errorCount, count"
scalar ldMacTest.host[6].app 	appPkCount:count 	976386
attr interpolationmode  node
attr source  appPkCount
attr title  "appPkCount, count"
scalar ldMacTest.host[6].mac 	time10:count 	11215
attr source  time10
attr title  "time10, count"
scalar ldMacTest.host[6].mac 	time9:count 	18087
attr source  time9
attr title  "time9, count"
scalar ldMacTest.host[6].mac 	time8:count 	20165
attr source  time8
attr title  "time8, count"
scalar ldMacTest.host[6].mac 	time7:count 	4051
attr source  time7
attr title  "time7, count"
scalar ldMacTest.host[6].mac 	time6:count 	7308
attr source  time6
attr title  "time6, count"
scalar ldMacTest.host[6].mac 	time5:count 	7407
attr source  time5
attr title  "time5, count"
scalar ldMacTest.host[6].mac 	time4:count 	0
attr source  time4
attr title  "time4, count"
scalar ldMacTest.host[6].mac 	time3:count 	0
attr source  time3
attr title  "time3, count"
scalar ldMacTest.host[6].mac 	time2:count 	0
attr source  time2
attr title  "time2, count"
scalar ldMacTest.host[6].mac 	time1:count 	0
attr source  time1
attr title  "time1, count"
scalar ldMacTest.host[6].mac 	time0:count 	68233
attr source  time0
attr title  "time0, count"
scalar ldMacTest.host[6].mac 	sentPkCount:count 	966369
attr interpolationmode  node
attr source  sentPkCount
attr title  "pkCount, count"
scalar ldMacTest.host[6].mac 	discardPkCount:count 	0
attr interpolationmode  node
attr source  discardPkCount
attr title  "discardPkCount, count"
scalar ldMacTest.host[6].mac 	queueTime:mean 	0.1311512940101
attr source  queueTime
attr title  "queueTime, mean"
scalar ldMacTest.host[7].app 	errorCount:count 	0
attr interpolationmode  node
attr source  errorCount
attr title  "errorCount, count"
scalar ldMacTest.host[7].app 	appPkCount:count 	943633
attr interpolationmode  node
attr source  appPkCount
attr title  "appPkCount, count"
scalar ldMacTest.host[7].mac 	time10:count 	3702
attr source  time10
attr title  "time10, count"
scalar ldMacTest.host[7].mac 	time9:count 	3689
attr source  time9
attr title  "time9, count"
scalar ldMacTest.host[7].mac 	time8:count 	3784
attr source  time8
attr title  "time8, count"
scalar ldMacTest.host[7].mac 	time7:count 	8764
attr source  time7
attr title  "time7, count"
scalar ldMacTest.host[7].mac 	time6:count 	12001
attr source  time6
attr title  "time6, count"
scalar ldMacTest.host[7].mac 	time5:count 	12953
attr source  time5
attr title  "time5, count"
scalar ldMacTest.host[7].mac 	time4:count 	12910
attr source  time4
attr title  "time4, count"
scalar ldMacTest.host[7].mac 	time3:count 	6848
attr source  time3
attr title  "time3, count"
scalar ldMacTest.host[7].mac 	time2:count 	0
attr source  time2
attr title  "time2, count"
scalar ldMacTest.host[7].mac 	time1:count 	0
attr source  time1
attr title  "time1, count"
scalar ldMacTest.host[7].mac 	time0:count 	64651
attr source  time0
attr title  "time0, count"
scalar ldMacTest.host[7].mac 	sentPkCount:count 	884467
attr interpolationmode  node
attr source  sentPkCount
attr title  "pkCount, count"
scalar ldMacTest.host[7].mac 	discardPkCount:count 	0
attr interpolationmode  node
attr source  discardPkCount
attr title  "discardPkCount, count"
scalar ldMacTest.host[7].mac 	queueTime:mean 	0.1118730736361
attr source  queueTime
attr title  "queueTime, mean"
scalar ldMacTest.host[8].app 	errorCount:count 	0
attr interpolationmode  node
attr source  errorCount
attr title  "errorCount, count"
scalar ldMacTest.host[8].app 	appPkCount:count 	946629
attr interpolationmode  node
attr source  appPkCount
attr title  "appPkCount, count"
scalar ldMacTest.host[8].mac 	time10:count 	0
attr source  time10
attr title  "time10, count"
scalar ldMacTest.host[8].mac 	time9:count 	2515
attr source  time9
attr title  "time9, count"
scalar ldMacTest.host[8].mac 	time8:count 	7986
attr source  time8
attr title  "time8, count"
scalar ldMacTest.host[8].mac 	time7:count 	13499
attr source  time7
attr title  "time7, count"
scalar ldMacTest.host[8].mac 	time6:count 	22287
attr source  time6
attr title  "time6, count"
scalar ldMacTest.host[8].mac 	time5:count 	6413
attr source  time5
attr title  "time5, count"
scalar ldMacTest.host[8].mac 	time4:count 	16427
attr source  time4
attr title  "time4, count"
scalar ldMacTest.host[8].mac 	time3:count 	0
attr source  time3
attr title  "time3, count"
scalar ldMacTest.host[8].mac 	time2:count 	0
attr source  time2
attr title  "time2, count"
scalar ldMacTest.host[8].mac 	time1:count 	0
attr source  time1
attr title  "time1, count"
scalar ldMacTest.host[8].mac 	time0:count 	69127
attr source  time0
attr title  "time0, count"
scalar ldMacTest.host[8].mac 	sentPkCount:count 	946629
attr interpolationmode  node
attr source  sentPkCount
attr title  "pkCount, count"
scalar ldMacTest.host[8].mac 	discardPkCount:count 	0
attr interpolationmode  node
attr source  discardPkCount
attr title  "discardPkCount, count"
scalar ldMacTest.host[8].mac 	queueTime:mean 	0.11190157578279
attr source  queueTime
attr title  "queueTime, mean"
scalar ldMacTest.host[9].app 	errorCount:count 	0
attr interpolationmode  node
attr source  errorCount
attr title  "errorCount, count"
scalar ldMacTest.host[9].app 	appPkCount:count 	964429
attr interpolationmode  node
attr source  appPkCount
attr title  "appPkCount, count"
scalar ldMacTest.host[9].mac 	time10:count 	6928
attr source  time10
attr title  "time10, count"
scalar ldMacTest.host[9].mac 	time9:count 	7068
attr source  time9
attr title  "time9, count"
scalar ldMacTest.host[9].mac 	time8:count 	7223
attr source  time8
attr title  "time8, count"
scalar ldMacTest.host[9].mac 	time7:count 	11462
attr source  time7
attr title  "time7, count"
scalar ldMacTest.host[9].mac 	time6:count 	12020
attr source  time6
attr title  "time6, count"
scalar ldMacTest.host[9].mac 	time5:count 	4596
attr source  time5
attr title  "time5, count"
scalar ldMacTest.host[9].mac 	time4:count 	11834
attr source  time4
attr title  "time4, count"
scalar ldMacTest.host[9].mac 	time3:count 	0
attr source  time3
attr title  "time3, count"
scalar ldMacTest.host[9].mac 	time2:count 	0
attr source  time2
attr title  "time2, count"
scalar ldMacTest.host[9].mac 	time1:count 	0
attr source  time1
attr title  "time1, count"
scalar ldMacTest.host[9].mac 	time0:count 	61131
attr source  time0
attr title  "time0, count"
scalar ldMacTest.host[9].mac 	sentPkCount:count 	859672
attr interpolationmode  node
attr source  sentPkCount
attr title  "pkCount, count"
scalar ldMacTest.host[9].mac 	discardPkCount:count 	0
attr interpolationmode  node
attr source  discardPkCount
attr title  "discardPkCount, count"
scalar ldMacTest.host[9].mac 	queueTime:mean 	0.12038675607765
attr source  queueTime
attr title  "queueTime, mean"
scalar ldMacTest.host[10].app 	errorCount:count 	0
attr interpolationmode  node
attr source  errorCount
attr title  "errorCount, count"
scalar ldMacTest.host[10].app 	appPkCount:count 	950706
attr interpolationmode  node
attr source  appPkCount
attr title  "appPkCount, count"
scalar ldMacTest.host[10].mac 	time10:count 	0
attr source  time10
attr title  "time10, count"
scalar ldMacTest.host[10].mac 	time9:count 	1618
attr source  time9
attr title  "time9, count"
scalar ldMacTest.host[10].mac 	time8:count 	5500
attr source  time8
attr title  "time8, count"
scalar ldMacTest.host[10].mac 	time7:count 	31965
attr source  time7
attr title  "time7, count"
scalar ldMacTest.host[10].mac 	time6:count 	15189
attr source  time6
attr title  "time6, count"
scalar ldMacTest.host[10].mac 	time5:count 	3953
attr source  time5
attr title  "time5, count"
scalar ldMacTest.host[10].mac 	time4:count 	4320
attr source  time4
attr title  "time4, count"
scalar ldMacTest.host[10].mac 	time3:count 	6141
attr source  time3
attr title  "time3, count"
scalar ldMacTest.host[10].mac 	time2:count 	388
attr source  time2
attr title  "time2, count"
scalar ldMacTest.host[10].mac 	time1:count 	0
attr source  time1
attr title  "time1, count"
scalar ldMacTest.host[10].mac 	time0:count 	69074
attr source  time0
attr title  "time0, count"
scalar ldMacTest.host[10].mac 	sentPkCount:count 	950706
attr interpolationmode  node
attr source  sentPkCount
attr title  "pkCount, count"
scalar ldMacTest.host[10].mac 	discardPkCount:count 	0
attr interpolationmode  node
attr source  discardPkCount
attr title  "discardPkCount, count"
scalar ldMacTest.host[10].mac 	queueTime:mean 	0.11417816008266
attr source  queueTime
attr title  "queueTime, mean"
scalar ldMacTest.host[11].app 	errorCount:count 	0
attr interpolationmode  node
attr source  errorCount
attr title  "errorCount, count"
scalar ldMacTest.host[11].app 	appPkCount:count 	991545
attr interpolationmode  node
attr source  appPkCount
attr title  "appPkCount, count"
scalar ldMacTest.host[11].mac 	time10:count 	9014
attr source  time10
attr title  "time10, count"
scalar ldMacTest.host[11].mac 	time9:count 	10180
attr source  time9
attr title  "time9, count"
scalar ldMacTest.host[11].mac 	time8:count 	7286
attr source  time8
attr title  "time8, count"
scalar ldMacTest.host[11].mac 	time7:count 	7950
attr source  time7
attr title  "time7, count"
scalar ldMacTest.host[11].mac 	time6:count 	9832
attr source  time6
attr title  "time6, count"
scalar ldMacTest.host[11].mac 	time5:count 	14851
attr source  time5
attr title  "time5, count"
scalar ldMacTest.host[11].mac 	time4:count 	0
attr source  time4
attr title  "time4, count"
scalar ldMacTest.host[11].mac 	time3:count 	0
attr source  time3
attr title  "time3, count"
scalar ldMacTest.host[11].mac 	time2:count 	0
attr source  time2
attr title  "time2, count"
scalar ldMacTest.host[11].mac 	time1:count 	0
attr source  time1
attr title  "time1, count"
scalar ldMacTest.host[11].mac 	time0:count 	59113
attr source  time0
attr title  "time0, count"
scalar ldMacTest.host[11].mac 	sentPkCount:count 	839630
attr interpolationmode  node
attr source  sentPkCount
attr title  "pkCount, count"
scalar ldMacTest.host[11].mac 	discardPkCount:count 	0
attr interpolationmode  node
attr source  discardPkCount
attr title  "discardPkCount, count"
scalar ldMacTest.host[11].mac 	queueTime:mean 	0.12388174687824
attr source  queueTime
attr title  "queueTime, mean"
scalar ldMacTest.host[12].app 	errorCount:count 	0
attr interpolationmode  node
attr source  errorCount
attr title  "errorCount, count"
scalar ldMacTest.host[12].app 	appPkCount:count 	952026
attr interpolationmode  node
attr source  appPkCount
attr title  "appPkCount, count"
scalar ldMacTest.host[12].mac 	time10:count 	7482
attr source  time10
attr title  "time10, count"
scalar ldMacTest.host[12].mac 	time9:count 	7990
attr source  time9
attr title  "time9, count"
scalar ldMacTest.host[12].mac 	time8:count 	9150
attr source  time8
attr title  "time8, count"
scalar ldMacTest.host[12].mac 	time7:count 	6688
attr source  time7
attr title  "time7, count"
scalar ldMacTest.host[12].mac 	time6:count 	3855
attr source  time6
attr title  "time6, count"
scalar ldMacTest.host[12].mac 	time5:count 	4131
attr source  time5
attr title  "time5, count"
scalar ldMacTest.host[12].mac 	time4:count 	6302
attr source  time4
attr title  "time4, count"
scalar ldMacTest.host[12].mac 	time3:count 	11076
attr source  time3
attr title  "time3, count"
scalar ldMacTest.host[12].mac 	time2:count 	0
attr source  time2
attr title  "time2, count"
scalar ldMacTest.host[12].mac 	time1:count 	0
attr source  time1
attr title  "time1, count"
scalar ldMacTest.host[12].mac 	time0:count 	56674
attr source  time0
attr title  "time0, count"
scalar ldMacTest.host[12].mac 	sentPkCount:count 	791795
attr interpolationmode  node
attr source  sentPkCount
attr title  "pkCount, count"
scalar ldMacTest.host[12].mac 	discardPkCount:count 	0
attr interpolationmode  node
attr source  discardPkCount
attr title  "discardPkCount, count"
scalar ldMacTest.host[12].mac 	queueTime:mean 	0.11956278764177
attr source  queueTime
attr title  "queueTime, mean"
scalar ldMacTest.host[13].app 	errorCount:count 	0
attr interpolationmode  node
attr source  errorCount
attr title  "errorCount, count"
scalar ldMacTest.host[13].app 	appPkCount:count 	982517
attr interpolationmode  node
attr source  appPkCount
attr title  "appPkCount, count"
scalar ldMacTest.host[13].mac 	time10:count 	6891
attr source  time10
attr title  "time10, count"
scalar ldMacTest.host[13].mac 	time9:count 	6997
attr source  time9
attr title  "time9, count"
scalar ldMacTest.host[13].mac 	time8:count 	7324
attr source  time8
attr title  "time8, count"
scalar ldMacTest.host[13].mac 	time7:count 	10673
attr source  time7
attr title  "time7, count"
scalar ldMacTest.host[13].mac 	time6:count 	11672
attr source  time6
attr title  "time6, count"
scalar ldMacTest.host[13].mac 	time5:count 	13055
attr source  time5
attr title  "time5, count"
scalar ldMacTest.host[13].mac 	time4:count 	7566
attr source  time4
attr title  "time4, count"
scalar ldMacTest.host[13].mac 	time3:count 	0
attr source  time3
attr title  "time3, count"
scalar ldMacTest.host[13].mac 	time2:count 	0
attr source  time2
attr title  "time2, count"
scalar ldMacTest.host[13].mac 	time1:count 	0
attr source  time1
attr title  "time1, count"
scalar ldMacTest.host[13].mac 	time0:count 	64178
attr source  time0
attr title  "time0, count"
scalar ldMacTest.host[13].mac 	sentPkCount:count 	911075
attr interpolationmode  node
attr source  sentPkCount
attr title  "pkCount, count"
scalar ldMacTest.host[13].mac 	discardPkCount:count 	0
attr interpolationmode  node
attr source  discardPkCount
attr title  "discardPkCount, count"
scalar ldMacTest.host[13].mac 	queueTime:mean 	0.11880248240996
attr source  queueTime
attr title  "queueTime, mean"
scalar ldMacTest.host[14].app 	errorCount:count 	0
attr interpolationmode  node
attr source  errorCount
attr title  "errorCount, count"
scalar ldMacTest.host[14].app 	appPkCount:count 	983117
attr interpolationmode  node
attr source  appPkCount
attr title  "appPkCount, count"
scalar ldMacTest.host[14].mac 	time10:count 	989
attr source  time10
attr title  "time10, count"
scalar ldMacTest.host[14].mac 	time9:count 	3198
attr source  time9
attr title  "time9, count"
scalar ldMacTest.host[14].mac 	time8:count 	3178
attr source  time8
attr title  "time8, count"
scalar ldMacTest.host[14].mac 	time7:count 	3190
attr source  time7
attr title  "time7, count"
scalar ldMacTest.host[14].mac 	time6:count 	3201
attr source  time6
attr title  "time6, count"
scalar ldMacTest.host[14].mac 	time5:count 	14965
attr source  time5
attr title  "time5, count"
scalar ldMacTest.host[14].mac 	time4:count 	9555
attr source  time4
attr title  "time4, count"
scalar ldMacTest.host[14].mac 	time3:count 	9633
attr source  time3
attr title  "time3, count"
scalar ldMacTest.host[14].mac 	time2:count 	9778
attr source  time2
attr title  "time2, count"
scalar ldMacTest.host[14].mac 	time1:count 	11337
attr source  time1
attr title  "time1, count"
scalar ldMacTest.host[14].mac 	time0:count 	69024
attr source  time0
attr title  "time0, count"
scalar ldMacTest.host[14].mac 	sentPkCount:count 	982846
attr interpolationmode  node
attr source  sentPkCount
attr title  "pkCount, count"
scalar ldMacTest.host[14].mac 	discardPkCount:count 	0
attr interpolationmode  node
attr source  discardPkCount
attr title  "discardPkCount, count"
scalar ldMacTest.host[14].mac 	queueTime:mean 	0.099604217397448
attr source  queueTime
attr title  "queueTime, mean"
scalar ldMacTest.host[15].app 	errorCount:count 	0
attr interpolationmode  node
attr source  errorCount
attr title  "errorCount, count"
scalar ldMacTest.host[15].app 	appPkCount:count 	958581
attr interpolationmode  node
attr source  appPkCount
attr title  "appPkCount, count"
scalar ldMacTest.host[15].mac 	time10:count 	13089
attr source  time10
attr title  "time10, count"
scalar ldMacTest.host[15].mac 	time9:count 	6489
attr source  time9
attr title  "time9, count"
scalar ldMacTest.host[15].mac 	time8:count 	3409
attr source  time8
attr title  "time8, count"
scalar ldMacTest.host[15].mac 	time7:count 	3480
attr source  time7
attr title  "time7, count"
scalar ldMacTest.host[15].mac 	time6:count 	5189
attr source  time6
attr title  "time6, count"
scalar ldMacTest.host[15].mac 	time5:count 	7328
attr source  time5
attr title  "time5, count"
scalar ldMacTest.host[15].mac 	time4:count 	7893
attr source  time4
attr title  "time4, count"
scalar ldMacTest.host[15].mac 	time3:count 	10249
attr source  time3
attr title  "time3, count"
scalar ldMacTest.host[15].mac 	time2:count 	5535
attr source  time2
attr title  "time2, count"
scalar ldMacTest.host[15].mac 	time1:count 	0
attr source  time1
attr title  "time1, count"
scalar ldMacTest.host[15].mac 	time0:count 	62661
attr source  time0
attr title  "time0, count"
scalar ldMacTest.host[15].mac 	sentPkCount:count 	869005
attr interpolationmode  node
attr source  sentPkCount
attr title  "pkCount, count"
scalar ldMacTest.host[15].mac 	discardPkCount:count 	0
attr interpolationmode  node
attr source  discardPkCount
attr title  "discardPkCount, count"
scalar ldMacTest.host[15].mac 	queueTime:mean 	0.11182667292979
attr source  queueTime
attr title  "queueTime, mean"
scalar ldMacTest.host[16].app 	errorCount:count 	0
attr interpolationmode  node
attr source  errorCount
attr title  "errorCount, count"
scalar ldMacTest.host[16].app 	appPkCount:count 	960997
attr interpolationmode  node
attr source  appPkCount
attr title  "appPkCount, count"
scalar ldMacTest.host[16].mac 	time10:count 	3325
attr source  time10
attr title  "time10, count"
scalar ldMacTest.host[16].mac 	time9:count 	3412
attr source  time9
attr title  "time9, count"
scalar ldMacTest.host[16].mac 	time8:count 	3504
attr source  time8
attr title  "time8, count"
scalar ldMacTest.host[16].mac 	time7:count 	3686
attr source  time7
attr title  "time7, count"
scalar ldMacTest.host[16].mac 	time6:count 	4380
attr source  time6
attr title  "time6, count"
scalar ldMacTest.host[16].mac 	time5:count 	7798
attr source  time5
attr title  "time5, count"
scalar ldMacTest.host[16].mac 	time4:count 	9198
attr source  time4
attr title  "time4, count"
scalar ldMacTest.host[16].mac 	time3:count 	11692
attr source  time3
attr title  "time3, count"
scalar ldMacTest.host[16].mac 	time2:count 	0
attr source  time2
attr title  "time2, count"
scalar ldMacTest.host[16].mac 	time1:count 	0
attr source  time1
attr title  "time1, count"
scalar ldMacTest.host[16].mac 	time0:count 	46995
attr source  time0
attr title  "time0, count"
scalar ldMacTest.host[16].mac 	sentPkCount:count 	641333
attr interpolationmode  node
attr source  sentPkCount
attr title  "pkCount, count"
scalar ldMacTest.host[16].mac 	discardPkCount:count 	0
attr interpolationmode  node
attr source  discardPkCount
attr title  "discardPkCount, count"
scalar ldMacTest.host[16].mac 	queueTime:mean 	0.10578294964427
attr source  queueTime
attr title  "queueTime, mean"
scalar ldMacTest.host[17].app 	errorCount:count 	0
attr interpolationmode  node
attr source  errorCount
attr title  "errorCount, count"
scalar ldMacTest.host[17].app 	appPkCount:count 	931162
attr interpolationmode  node
attr source  appPkCount
attr title  "appPkCount, count"
scalar ldMacTest.host[17].mac 	time10:count 	0
attr source  time10
attr title  "time10, count"
scalar ldMacTest.host[17].mac 	time9:count 	0
attr source  time9
attr title  "time9, count"
scalar ldMacTest.host[17].mac 	time8:count 	0
attr source  time8
attr title  "time8, count"
scalar ldMacTest.host[17].mac 	time7:count 	4713
attr source  time7
attr title  "time7, count"
scalar ldMacTest.host[17].mac 	time6:count 	13473
attr source  time6
attr title  "time6, count"
scalar ldMacTest.host[17].mac 	time5:count 	32896
attr source  time5
attr title  "time5, count"
scalar ldMacTest.host[17].mac 	time4:count 	18043
attr source  time4
attr title  "time4, count"
scalar ldMacTest.host[17].mac 	time3:count 	0
attr source  time3
attr title  "time3, count"
scalar ldMacTest.host[17].mac 	time2:count 	0
attr source  time2
attr title  "time2, count"
scalar ldMacTest.host[17].mac 	time1:count 	0
attr source  time1
attr title  "time1, count"
scalar ldMacTest.host[17].mac 	time0:count 	69125
attr source  time0
attr title  "time0, count"
scalar ldMacTest.host[17].mac 	sentPkCount:count 	931071
attr interpolationmode  node
attr source  sentPkCount
attr title  "pkCount, count"
scalar ldMacTest.host[17].mac 	discardPkCount:count 	0
attr interpolationmode  node
attr source  discardPkCount
attr title  "discardPkCount, count"
scalar ldMacTest.host[17].mac 	queueTime:mean 	0.1021941678747
attr source  queueTime
attr title  "queueTime, mean"
scalar ldMacTest.host[18].app 	errorCount:count 	0
attr interpolationmode  node
attr source  errorCount
attr title  "errorCount, count"
scalar ldMacTest.host[18].app 	appPkCount:count 	947490
attr interpolationmode  node
attr source  appPkCount
attr title  "appPkCount, count"
scalar ldMacTest.host[18].mac 	time10:count 	0
attr source  time10
attr title  "time10, count"
scalar ldMacTest.host[18].mac 	time9:count 	16
attr source  time9
attr title  "time9, count"
scalar ldMacTest.host[18].mac 	time8:count 	17674
attr source  time8
attr title  "time8, count"
scalar ldMacTest.host[18].mac 	time7:count 	16080
attr source  time7
attr title  "time7, count"
scalar ldMacTest.host[18].mac 	time6:count 	6238
attr source  time6
attr title  "time6, count"
scalar ldMacTest.host[18].mac 	time5:count 	6163
attr source  time5
attr title  "time5, count"
scalar ldMacTest.host[18].mac 	time4:count 	6262
attr source  time4
attr title  "time4, count"
scalar ldMacTest.host[18].mac 	time3:count 	6630
attr source  time3
attr title  "time3, count"
scalar ldMacTest.host[18].mac 	time2:count 	10083
attr source  time2
attr title  "time2, count"
scalar ldMacTest.host[18].mac 	time1:count 	0
attr source  time1
attr title  "time1, count"
scalar ldMacTest.host[18].mac 	time0:count 	69146
attr source  time0
attr title  "time0, count"
scalar ldMacTest.host[18].mac 	sentPkCount:count 	947490
attr interpolationmode  node
attr source  sentPkCount
attr title  "pkCount, count"
scalar ldMacTest.host[18].mac 	discardPkCount:count 	0
attr interpolationmode  node
attr source  discardPkCount
attr title  "discardPkCount, count"
scalar ldMacTest.host[18].mac 	queueTime:mean 	0.1094656736753
attr source  queueTime
attr title  "queueTime, mean"
scalar ldMacTest.host[19].app 	errorCount:count 	0
attr interpolationmode  node
attr source  errorCount
attr title  "errorCount, count"
scalar ldMacTest.host[19].app 	appPkCount:count 	956279
attr interpolationmode  node
attr source  appPkCount
attr title  "appPkCount, count"
scalar ldMacTest.host[19].mac 	time10:count 	4377
attr source  time10
attr title  "time10, count"
scalar ldMacTest.host[19].mac 	time9:count 	9251
attr source  time9
attr title  "time9, count"
scalar ldMacTest.host[19].mac 	time8:count 	12983
attr source  time8
attr title  "time8, count"
scalar ldMacTest.host[19].mac 	time7:count 	6453
attr source  time7
attr title  "time7, count"
scalar ldMacTest.host[19].mac 	time6:count 	6503
attr source  time6
attr title  "time6, count"
scalar ldMacTest.host[19].mac 	time5:count 	6823
attr source  time5
attr title  "time5, count"
scalar ldMacTest.host[19].mac 	time4:count 	7621
attr source  time4
attr title  "time4, count"
scalar ldMacTest.host[19].mac 	time3:count 	12994
attr source  time3
attr title  "time3, count"
scalar ldMacTest.host[19].mac 	time2:count 	0
attr source  time2
attr title  "time2, count"
scalar ldMacTest.host[19].mac 	time1:count 	0
attr source  time1
attr title  "time1, count"
scalar ldMacTest.host[19].mac 	time0:count 	67005
attr source  time0
attr title  "time0, count"
scalar ldMacTest.host[19].mac 	sentPkCount:count 	928204
attr interpolationmode  node
attr source  sentPkCount
attr title  "pkCount, count"
scalar ldMacTest.host[19].mac 	discardPkCount:count 	0
attr interpolationmode  node
attr source  discardPkCount
attr title  "discardPkCount, count"
scalar ldMacTest.host[19].mac 	queueTime:mean 	0.11671495629892
attr source  queueTime
attr title  "queueTime, mean"
scalar ldMacTest.host[20].app 	errorCount:count 	0
attr interpolationmode  node
attr source  errorCount
attr title  "errorCount, count"
scalar ldMacTest.host[20].app 	appPkCount:count 	976218
attr interpolationmode  node
attr source  appPkCount
attr title  "appPkCount, count"
scalar ldMacTest.host[20].mac 	time10:count 	0
attr source  time10
attr title  "time10, count"
scalar ldMacTest.host[20].mac 	time9:count 	0
attr source  time9
attr title  "time9, count"
scalar ldMacTest.host[20].mac 	time8:count 	5989
attr source  time8
attr title  "time8, count"
scalar ldMacTest.host[20].mac 	time7:count 	10003
attr source  time7
attr title  "time7, count"
scalar ldMacTest.host[20].mac 	time6:count 	10156
attr source  time6
attr title  "time6, count"
scalar ldMacTest.host[20].mac 	time5:count 	11371
attr source  time5
attr title  "time5, count"
scalar ldMacTest.host[20].mac 	time4:count 	13999
attr source  time4
attr title  "time4, count"
scalar ldMacTest.host[20].mac 	time3:count 	7824
attr source  time3
attr title  "time3, count"
scalar ldMacTest.host[20].mac 	time2:count 	9630
attr source  time2
attr title  "time2, count"
scalar ldMacTest.host[20].mac 	time1:count 	0
attr source  time1
attr title  "time1, count"
scalar ldMacTest.host[20].mac 	time0:count 	68972
attr source  time0
attr title  "time0, count"
scalar ldMacTest.host[20].mac 	sentPkCount:count 	976218
attr interpolationmode  node
attr source  sentPkCount
attr title  "pkCount, count"
scalar ldMacTest.host[20].mac 	discardPkCount:count 	0
attr interpolationmode  node
attr source  discardPkCount
attr title  "discardPkCount, count"
scalar ldMacTest.host[20].mac 	queueTime:mean 	0.10457492044964
attr source  queueTime
attr title  "queueTime, mean"
scalar ldMacTest.host[21].app 	errorCount:count 	0
attr interpolationmode  node
attr source  errorCount
attr title  "errorCount, count"
scalar ldMacTest.host[21].app 	appPkCount:count 	942402
attr interpolationmode  node
attr source  appPkCount
attr title  "appPkCount, count"
scalar ldMacTest.host[21].mac 	time10:count 	6998
attr source  time10
attr title  "time10, count"
scalar ldMacTest.host[21].mac 	time9:count 	3924
attr source  time9
attr title  "time9, count"
scalar ldMacTest.host[21].mac 	time8:count 	6751
attr source  time8
attr title  "time8, count"
scalar ldMacTest.host[21].mac 	time7:count 	8000
attr source  time7
attr title  "time7, count"
scalar ldMacTest.host[21].mac 	time6:count 	8433
attr source  time6
attr title  "time6, count"
scalar ldMacTest.host[21].mac 	time5:count 	9451
attr source  time5
attr title  "time5, count"
scalar ldMacTest.host[21].mac 	time4:count 	15203
attr source  time4
attr title  "time4, count"
scalar ldMacTest.host[21].mac 	time3:count 	3878
attr source  time3
attr title  "time3, count"
scalar ldMacTest.host[21].mac 	time2:count 	0
attr source  time2
attr title  "time2, count"
scalar ldMacTest.host[21].mac 	time1:count 	0
attr source  time1
attr title  "time1, count"
scalar ldMacTest.host[21].mac 	time0:count 	62638
attr source  time0
attr title  "time0, count"
scalar ldMacTest.host[21].mac 	sentPkCount:count 	853127
attr interpolationmode  node
attr source  sentPkCount
attr title  "pkCount, count"
scalar ldMacTest.host[21].mac 	discardPkCount:count 	0
attr interpolationmode  node
attr source  discardPkCount
attr title  "discardPkCount, count"
scalar ldMacTest.host[21].mac 	queueTime:mean 	0.11401774506525
attr source  queueTime
attr title  "queueTime, mean"
scalar ldMacTest.host[22].app 	errorCount:count 	0
attr interpolationmode  node
attr source  errorCount
attr title  "errorCount, count"
scalar ldMacTest.host[22].app 	appPkCount:count 	954351
attr interpolationmode  node
attr source  appPkCount
attr title  "appPkCount, count"
scalar ldMacTest.host[22].mac 	time10:count 	0
attr source  time10
attr title  "time10, count"
scalar ldMacTest.host[22].mac 	time9:count 	1214
attr source  time9
attr title  "time9, count"
scalar ldMacTest.host[22].mac 	time8:count 	4541
attr source  time8
attr title  "time8, count"
scalar ldMacTest.host[22].mac 	time7:count 	8201
attr source  time7
attr title  "time7, count"
scalar ldMacTest.host[22].mac 	time6:count 	17645
attr source  time6
attr title  "time6, count"
scalar ldMacTest.host[22].mac 	time5:count 	21548
attr source  time5
attr title  "time5, count"
scalar ldMacTest.host[22].mac 	time4:count 	15992
attr source  time4
attr title  "time4, count"
scalar ldMacTest.host[22].mac 	time3:count 	0
attr source  time3
attr title  "time3, count"
scalar ldMacTest.host[22].mac 	time2:count 	0
attr source  time2
attr title  "time2, count"
scalar ldMacTest.host[22].mac 	time1:count 	0
attr source  time1
attr title  "time1, count"
scalar ldMacTest.host[22].mac 	time0:count 	69141
attr source  time0
attr title  "time0, count"
scalar ldMacTest.host[22].mac 	sentPkCount:count 	954351
attr interpolationmode  node
attr source  sentPkCount
attr title  "pkCount, count"
scalar ldMacTest.host[22].mac 	discardPkCount:count 	0
attr interpolationmode  node
attr source  discardPkCount
attr title  "discardPkCount, count"
scalar ldMacTest.host[22].mac 	queueTime:mean 	0.10699621668732
attr source  queueTime
attr title  "queueTime, mean"
scalar ldMacTest.host[23].app 	errorCount:count 	0
attr interpolationmode  node
attr source  errorCount
attr title  "errorCount, count"
scalar ldMacTest.host[23].app 	appPkCount:count 	951205
attr interpolationmode  node
attr source  appPkCount
attr title  "appPkCount, count"
scalar ldMacTest.host[23].mac 	time10:count 	6761
attr source  time10
attr title  "time10, count"
scalar ldMacTest.host[23].mac 	time9:count 	9608
attr source  time9
attr title  "time9, count"
scalar ldMacTest.host[23].mac 	time8:count 	10535
attr source  time8
attr title  "time8, count"
scalar ldMacTest.host[23].mac 	time7:count 	11116
attr source  time7
attr title  "time7, count"
scalar ldMacTest.host[23].mac 	time6:count 	12111
attr source  time6
attr title  "time6, count"
scalar ldMacTest.host[23].mac 	time5:count 	9630
attr source  time5
attr title  "time5, count"
scalar ldMacTest.host[23].mac 	time4:count 	5250
attr source  time4
attr title  "time4, count"
scalar ldMacTest.host[23].mac 	time3:count 	0
attr source  time3
attr title  "time3, count"
scalar ldMacTest.host[23].mac 	time2:count 	0
attr source  time2
attr title  "time2, count"
scalar ldMacTest.host[23].mac 	time1:count 	0
attr source  time1
attr title  "time1, count"
scalar ldMacTest.host[23].mac 	time0:count 	65011
attr source  time0
attr title  "time0, count"
scalar ldMacTest.host[23].mac 	sentPkCount:count 	897157
attr interpolationmode  node
attr source  sentPkCount
attr title  "pkCount, count"
scalar ldMacTest.host[23].mac 	discardPkCount:count 	0
attr interpolationmode  node
attr source  discardPkCount
attr title  "discardPkCount, count"
scalar ldMacTest.host[23].mac 	queueTime:mean 	0.12171082025647
attr source  queueTime
attr title  "queueTime, mean"
scalar ldMacTest.host[24].app 	errorCount:count 	0
attr interpolationmode  node
attr source  errorCount
attr title  "errorCount, count"
scalar ldMacTest.host[24].app 	appPkCount:count 	970679
attr interpolationmode  node
attr source  appPkCount
attr title  "appPkCount, count"
scalar ldMacTest.host[24].mac 	time10:count 	2479
attr source  time10
attr title  "time10, count"
scalar ldMacTest.host[24].mac 	time9:count 	17619
attr source  time9
attr title  "time9, count"
scalar ldMacTest.host[24].mac 	time8:count 	22441
attr source  time8
attr title  "time8, count"
scalar ldMacTest.host[24].mac 	time7:count 	16027
attr source  time7
attr title  "time7, count"
scalar ldMacTest.host[24].mac 	time6:count 	10511
attr source  time6
attr title  "time6, count"
scalar ldMacTest.host[24].mac 	time5:count 	0
attr source  time5
attr title  "time5, count"
scalar ldMacTest.host[24].mac 	time4:count 	0
attr source  time4
attr title  "time4, count"
scalar ldMacTest.host[24].mac 	time3:count 	0
attr source  time3
attr title  "time3, count"
scalar ldMacTest.host[24].mac 	time2:count 	0
attr source  time2
attr title  "time2, count"
scalar ldMacTest.host[24].mac 	time1:count 	0
attr source  time1
attr title  "time1, count"
scalar ldMacTest.host[24].mac 	time0:count 	69077
attr source  time0
attr title  "time0, count"
scalar ldMacTest.host[24].mac 	sentPkCount:count 	970679
attr interpolationmode  node
attr source  sentPkCount
attr title  "pkCount, count"
scalar ldMacTest.host[24].mac 	discardPkCount:count 	0
attr interpolationmode  node
attr source  discardPkCount
attr title  "discardPkCount, count"
scalar ldMacTest.host[24].mac 	queueTime:mean 	0.12958732863298
attr source  queueTime
attr title  "queueTime, mean"
scalar ldMacTest.host[25].app 	errorCount:count 	0
attr interpolationmode  node
attr source  errorCount
attr title  "errorCount, count"
scalar ldMacTest.host[25].app 	appPkCount:count 	959196
attr interpolationmode  node
attr source  appPkCount
attr title  "appPkCount, count"
scalar ldMacTest.host[25].mac 	time10:count 	23217
attr source  time10
attr title  "time10, count"
scalar ldMacTest.host[25].mac 	time9:count 	9984
attr source  time9
attr title  "time9, count"
scalar ldMacTest.host[25].mac 	time8:count 	3428
attr source  time8
attr title  "time8, count"
scalar ldMacTest.host[25].mac 	time7:count 	3527
attr source  time7
attr title  "time7, count"
scalar ldMacTest.host[25].mac 	time6:count 	3691
attr source  time6
attr title  "time6, count"
scalar ldMacTest.host[25].mac 	time5:count 	4119
attr source  time5
attr title  "time5, count"
scalar ldMacTest.host[25].mac 	time4:count 	6227
attr source  time4
attr title  "time4, count"
scalar ldMacTest.host[25].mac 	time3:count 	2271
attr source  time3
attr title  "time3, count"
scalar ldMacTest.host[25].mac 	time2:count 	0
attr source  time2
attr title  "time2, count"
scalar ldMacTest.host[25].mac 	time1:count 	0
attr source  time1
attr title  "time1, count"
scalar ldMacTest.host[25].mac 	time0:count 	56464
attr source  time0
attr title  "time0, count"
scalar ldMacTest.host[25].mac 	sentPkCount:count 	779704
attr interpolationmode  node
attr source  sentPkCount
attr title  "pkCount, count"
scalar ldMacTest.host[25].mac 	discardPkCount:count 	0
attr interpolationmode  node
attr source  discardPkCount
attr title  "discardPkCount, count"
scalar ldMacTest.host[25].mac 	queueTime:mean 	0.13425247712035
attr source  queueTime
attr title  "queueTime, mean"
scalar ldMacTest.host[26].app 	errorCount:count 	0
attr interpolationmode  node
attr source  errorCount
attr title  "errorCount, count"
scalar ldMacTest.host[26].app 	appPkCount:count 	953710
attr interpolationmode  node
attr source  appPkCount
attr title  "appPkCount, count"
scalar ldMacTest.host[26].mac 	time10:count 	3182
attr source  time10
attr title  "time10, count"
scalar ldMacTest.host[26].mac 	time9:count 	3225
attr source  time9
attr title  "time9, count"
scalar ldMacTest.host[26].mac 	time8:count 	4786
attr source  time8
attr title  "time8, count"
scalar ldMacTest.host[26].mac 	time7:count 	6981
attr source  time7
attr title  "time7, count"
scalar ldMacTest.host[26].mac 	time6:count 	9020
attr source  time6
attr title  "time6, count"
scalar ldMacTest.host[26].mac 	time5:count 	17648
attr source  time5
attr title  "time5, count"
scalar ldMacTest.host[26].mac 	time4:count 	19042
attr source  time4
attr title  "time4, count"
scalar ldMacTest.host[26].mac 	time3:count 	3977
attr source  time3
attr title  "time3, count"
scalar ldMacTest.host[26].mac 	time2:count 	0
attr source  time2
attr title  "time2, count"
scalar ldMacTest.host[26].mac 	time1:count 	0
attr source  time1
attr title  "time1, count"
scalar ldMacTest.host[26].mac 	time0:count 	67861
attr source  time0
attr title  "time0, count"
scalar ldMacTest.host[26].mac 	sentPkCount:count 	936749
attr interpolationmode  node
attr source  sentPkCount
attr title  "pkCount, count"
scalar ldMacTest.host[26].mac 	discardPkCount:count 	0
attr interpolationmode  node
attr source  discardPkCount
attr title  "discardPkCount, count"
scalar ldMacTest.host[26].mac 	queueTime:mean 	0.11058582051893
attr source  queueTime
attr title  "queueTime, mean"
scalar ldMacTest.host[27].app 	errorCount:count 	0
attr interpolationmode  node
attr source  errorCount
attr title  "errorCount, count"
scalar ldMacTest.host[27].app 	appPkCount:count 	947702
attr interpolationmode  node
attr source  appPkCount
attr title  "appPkCount, count"
scalar ldMacTest.host[27].mac 	time10:count 	0
attr source  time10
attr title  "time10, count"
scalar ldMacTest.host[27].mac 	time9:count 	8232
attr source  time9
attr title  "time9, count"
scalar ldMacTest.host[27].mac 	time8:count 	14361
attr source  time8
attr title  "time8, count"
scalar ldMacTest.host[27].mac 	time7:count 	18917
attr source  time7
attr title  "time7, count"
scalar ldMacTest.host[27].mac 	time6:count 	16484
attr source  time6
attr title  "time6, count"
scalar ldMacTest.host[27].mac 	time5:count 	3678
attr source  time5
attr title  "time5, count"
scalar ldMacTest.host[27].mac 	time4:count 	3985
attr source  time4
attr title  "time4, count"
scalar ldMacTest.host[27].mac 	time3:count 	3466
attr source  time3
attr title  "time3, count"
scalar ldMacTest.host[27].mac 	time2:count 	0
attr source  time2
attr title  "time2, count"
scalar ldMacTest.host[27].mac 	time1:count 	0
attr source  time1
attr title  "time1, count"
scalar ldMacTest.host[27].mac 	time0:count 	69123
attr source  time0
attr title  "time0, count"
scalar ldMacTest.host[27].mac 	sentPkCount:count 	947702
attr interpolationmode  node
attr source  sentPkCount
attr title  "pkCount, count"
scalar ldMacTest.host[27].mac 	discardPkCount:count 	0
attr interpolationmode  node
attr source  discardPkCount
attr title  "discardPkCount, count"
scalar ldMacTest.host[27].mac 	queueTime:mean 	0.12174613829943
attr source  queueTime
attr title  "queueTime, mean"
scalar ldMacTest.host[28].app 	errorCount:count 	0
attr interpolationmode  node
attr source  errorCount
attr title  "errorCount, count"
scalar ldMacTest.host[28].app 	appPkCount:count 	957440
attr interpolationmode  node
attr source  appPkCount
attr title  "appPkCount, count"
scalar ldMacTest.host[28].mac 	time10:count 	0
attr source  time10
attr title  "time10, count"
scalar ldMacTest.host[28].mac 	time9:count 	0
attr source  time9
attr title  "time9, count"
scalar ldMacTest.host[28].mac 	time8:count 	6156
attr source  time8
attr title  "time8, count"
scalar ldMacTest.host[28].mac 	time7:count 	12095
attr source  time7
attr title  "time7, count"
scalar ldMacTest.host[28].mac 	time6:count 	18967
attr source  time6
attr title  "time6, count"
scalar ldMacTest.host[28].mac 	time5:count 	7442
attr source  time5
attr title  "time5, count"
scalar ldMacTest.host[28].mac 	time4:count 	6585
attr source  time4
attr title  "time4, count"
scalar ldMacTest.host[28].mac 	time3:count 	5987
attr source  time3
attr title  "time3, count"
scalar ldMacTest.host[28].mac 	time2:count 	6004
attr source  time2
attr title  "time2, count"
scalar ldMacTest.host[28].mac 	time1:count 	5888
attr source  time1
attr title  "time1, count"
scalar ldMacTest.host[28].mac 	time0:count 	69124
attr source  time0
attr title  "time0, count"
scalar ldMacTest.host[28].mac 	sentPkCount:count 	957440
attr interpolationmode  node
attr source  sentPkCount
attr title  "pkCount, count"
scalar ldMacTest.host[28].mac 	discardPkCount:count 	0
attr interpolationmode  node
attr source  discardPkCount
attr title  "discardPkCount, count"
scalar ldMacTest.host[28].mac 	queueTime:mean 	0.10732006509568
attr source  queueTime
attr title  "queueTime, mean"
scalar ldMacTest.host[29].app 	errorCount:count 	0
attr interpolationmode  node
attr source  errorCount
attr title  "errorCount, count"
scalar ldMacTest.host[29].app 	appPkCount:count 	987543
attr interpolationmode  node
attr source  appPkCount
attr title  "appPkCount, count"
scalar ldMacTest.host[29].mac 	time10:count 	4891
attr source  time10
attr title  "time10, count"
scalar ldMacTest.host[29].mac 	time9:count 	6539
attr source  time9
attr title  "time9, count"
scalar ldMacTest.host[29].mac 	time8:count 	6644
attr source  time8
attr title  "time8, count"
scalar ldMacTest.host[29].mac 	time7:count 	6722
attr source  time7
attr title  "time7, count"
scalar ldMacTest.host[29].mac 	time6:count 	6989
attr source  time6
attr title  "time6, count"
scalar ldMacTest.host[29].mac 	time5:count 	7368
attr source  time5
attr title  "time5, count"
scalar ldMacTest.host[29].mac 	time4:count 	8684
attr source  time4
attr title  "time4, count"
scalar ldMacTest.host[29].mac 	time3:count 	11419
attr source  time3
attr title  "time3, count"
scalar ldMacTest.host[29].mac 	time2:count 	0
attr source  time2
attr title  "time2, count"
scalar ldMacTest.host[29].mac 	time1:count 	0
attr source  time1
attr title  "time1, count"
scalar ldMacTest.host[29].mac 	time0:count 	59256
attr source  time0
attr title  "time0, count"
scalar ldMacTest.host[29].mac 	sentPkCount:count 	835319
attr interpolationmode  node
attr source  sentPkCount
attr title  "pkCount, count"
scalar ldMacTest.host[29].mac 	discardPkCount:count 	0
attr interpolationmode  node
attr source  discardPkCount
attr title  "discardPkCount, count"
scalar ldMacTest.host[29].mac 	queueTime:mean 	0.11352863398582
attr source  queueTime
attr title  "queueTime, mean"
scalar ldMacTest.host[30].app 	errorCount:count 	0
attr interpolationmode  node
attr source  errorCount
attr title  "errorCount, count"
scalar ldMacTest.host[30].app 	appPkCount:count 	955229
attr interpolationmode  node
attr source  appPkCount
attr title  "appPkCount, count"
scalar ldMacTest.host[30].mac 	time10:count 	27384
attr source  time10
attr title  "time10, count"
scalar ldMacTest.host[30].mac 	time9:count 	3337
attr source  time9
attr title  "time9, count"
scalar ldMacTest.host[30].mac 	time8:count 	3281
attr source  time8
attr title  "time8, count"
scalar ldMacTest.host[30].mac 	time7:count 	3279
attr source  time7
attr title  "time7, count"
scalar ldMacTest.host[30].mac 	time6:count 	3326
attr source  time6
attr title  "time6, count"
scalar ldMacTest.host[30].mac 	time5:count 	3340
attr source  time5
attr title  "time5, count"
scalar ldMacTest.host[30].mac 	time4:count 	3336
attr source  time4
attr title  "time4, count"
scalar ldMacTest.host[30].mac 	time3:count 	1735
attr source  time3
attr title  "time3, count"
scalar ldMacTest.host[30].mac 	time2:count 	0
attr source  time2
attr title  "time2, count"
scalar ldMacTest.host[30].mac 	time1:count 	0
attr source  time1
attr title  "time1, count"
scalar ldMacTest.host[30].mac 	time0:count 	49018
attr source  time0
attr title  "time0, count"
scalar ldMacTest.host[30].mac 	sentPkCount:count 	674993
attr interpolationmode  node
attr source  sentPkCount
attr title  "pkCount, count"
scalar ldMacTest.host[30].mac 	discardPkCount:count 	0
attr interpolationmode  node
attr source  discardPkCount
attr title  "discardPkCount, count"
scalar ldMacTest.host[30].mac 	queueTime:mean 	0.13642864093125
attr source  queueTime
attr title  "queueTime, mean"
scalar ldMacTest.host[31].app 	errorCount:count 	0
attr interpolationmode  node
attr source  errorCount
attr title  "errorCount, count"
scalar ldMacTest.host[31].app 	appPkCount:count 	962600
attr interpolationmode  node
attr source  appPkCount
attr title  "appPkCount, count"
scalar ldMacTest.host[31].mac 	time10:count 	0
attr source  time10
attr title  "time10, count"
scalar ldMacTest.host[31].mac 	time9:count 	0
attr source  time9
attr title  "time9, count"
scalar ldMacTest.host[31].mac 	time8:count 	0
attr source  time8
attr title  "time8, count"
scalar ldMacTest.host[31].mac 	time7:count 	5663
attr source  time7
attr title  "time7, count"
scalar ldMacTest.host[31].mac 	time6:count 	11668
attr source  time6
attr title  "time6, count"
scalar ldMacTest.host[31].mac 	time5:count 	15802
attr source  time5
attr title  "time5, count"
scalar ldMacTest.host[31].mac 	time4:count 	18158
attr source  time4
attr title  "time4, count"
scalar ldMacTest.host[31].mac 	time3:count 	7338
attr source  time3
attr title  "time3, count"
scalar ldMacTest.host[31].mac 	time2:count 	10448
attr source  time2
attr title  "time2, count"
scalar ldMacTest.host[31].mac 	time1:count 	0
attr source  time1
attr title  "time1, count"
scalar ldMacTest.host[31].mac 	time0:count 	69077
attr source  time0
attr title  "time0, count"
scalar ldMacTest.host[31].mac 	sentPkCount:count 	962600
attr interpolationmode  node
attr source  sentPkCount
attr title  "pkCount, count"
scalar ldMacTest.host[31].mac 	discardPkCount:count 	0
attr interpolationmode  node
attr source  discardPkCount
attr title  "discardPkCount, count"
scalar ldMacTest.host[31].mac 	queueTime:mean 	0.099705149260292
attr source  queueTime
attr title  "queueTime, mean"
scalar ldMacTest.host[32].app 	errorCount:count 	0
attr interpolationmode  node
attr source  errorCount
attr title  "errorCount, count"
scalar ldMacTest.host[32].app 	appPkCount:count 	954135
attr interpolationmode  node
attr source  appPkCount
attr title  "appPkCount, count"
scalar ldMacTest.host[32].mac 	time10:count 	1271
attr source  time10
attr title  "time10, count"
scalar ldMacTest.host[32].mac 	time9:count 	12271
attr source  time9
attr title  "time9, count"
scalar ldMacTest.host[32].mac 	time8:count 	13174
attr source  time8
attr title  "time8, count"
scalar ldMacTest.host[32].mac 	time7:count 	14986
attr source  time7
attr title  "time7, count"
scalar ldMacTest.host[32].mac 	time6:count 	13168
attr source  time6
attr title  "time6, count"
scalar ldMacTest.host[32].mac 	time5:count 	14304
attr source  time5
attr title  "time5, count"
scalar ldMacTest.host[32].mac 	time4:count 	0
attr source  time4
attr title  "time4, count"
scalar ldMacTest.host[32].mac 	time3:count 	0
attr source  time3
attr title  "time3, count"
scalar ldMacTest.host[32].mac 	time2:count 	0
attr source  time2
attr title  "time2, count"
scalar ldMacTest.host[32].mac 	time1:count 	0
attr source  time1
attr title  "time1, count"
scalar ldMacTest.host[32].mac 	time0:count 	69174
attr source  time0
attr title  "time0, count"
scalar ldMacTest.host[32].mac 	sentPkCount:count 	954135
attr interpolationmode  node
attr source  sentPkCount
attr title  "pkCount, count"
scalar ldMacTest.host[32].mac 	discardPkCount:count 	0
attr interpolationmode  node
attr source  discardPkCount
attr title  "discardPkCount, count"
scalar ldMacTest.host[32].mac 	queueTime:mean 	0.12362892454553
attr source  queueTime
attr title  "queueTime, mean"
scalar ldMacTest.host[33].app 	errorCount:count 	0
attr interpolationmode  node
attr source  errorCount
attr title  "errorCount, count"
scalar ldMacTest.host[33].app 	appPkCount:count 	921787
attr interpolationmode  node
attr source  appPkCount
attr title  "appPkCount, count"
scalar ldMacTest.host[33].mac 	time10:count 	1585
attr source  time10
attr title  "time10, count"
scalar ldMacTest.host[33].mac 	time9:count 	8082
attr source  time9
attr title  "time9, count"
scalar ldMacTest.host[33].mac 	time8:count 	10771
attr source  time8
attr title  "time8, count"
scalar ldMacTest.host[33].mac 	time7:count 	10917
attr source  time7
attr title  "time7, count"
scalar ldMacTest.host[33].mac 	time6:count 	9278
attr source  time6
attr title  "time6, count"
scalar ldMacTest.host[33].mac 	time5:count 	8119
attr source  time5
attr title  "time5, count"
scalar ldMacTest.host[33].mac 	time4:count 	9988
attr source  time4
attr title  "time4, count"
scalar ldMacTest.host[33].mac 	time3:count 	10465
attr source  time3
attr title  "time3, count"
scalar ldMacTest.host[33].mac 	time2:count 	0
attr source  time2
attr title  "time2, count"
scalar ldMacTest.host[33].mac 	time1:count 	0
attr source  time1
attr title  "time1, count"
scalar ldMacTest.host[33].mac 	time0:count 	69205
attr source  time0
attr title  "time0, count"
scalar ldMacTest.host[33].mac 	sentPkCount:count 	921623
attr interpolationmode  node
attr source  sentPkCount
attr title  "pkCount, count"
scalar ldMacTest.host[33].mac 	discardPkCount:count 	0
attr interpolationmode  node
attr source  discardPkCount
attr title  "discardPkCount, count"
scalar ldMacTest.host[33].mac 	queueTime:mean 	0.11515015419866
attr source  queueTime
attr title  "queueTime, mean"
scalar ldMacTest.host[34].app 	errorCount:count 	0
attr interpolationmode  node
attr source  errorCount
attr title  "errorCount, count"
scalar ldMacTest.host[34].app 	appPkCount:count 	976867
attr interpolationmode  node
attr source  appPkCount
attr title  "appPkCount, count"
scalar ldMacTest.host[34].mac 	time10:count 	3535
attr source  time10
attr title  "time10, count"
scalar ldMacTest.host[34].mac 	time9:count 	3603
attr source  time9
attr title  "time9, count"
scalar ldMacTest.host[34].mac 	time8:count 	12591
attr source  time8
attr title  "time8, count"
scalar ldMacTest.host[34].mac 	time7:count 	7964
attr source  time7
attr title  "time7, count"
scalar ldMacTest.host[34].mac 	time6:count 	8919
attr source  time6
attr title  "time6, count"
scalar ldMacTest.host[34].mac 	time5:count 	12469
attr source  time5
attr title  "time5, count"
scalar ldMacTest.host[34].mac 	time4:count 	9093
attr source  time4
attr title  "time4, count"
scalar ldMacTest.host[34].mac 	time3:count 	0
attr source  time3
attr title  "time3, count"
scalar ldMacTest.host[34].mac 	time2:count 	0
attr source  time2
attr title  "time2, count"
scalar ldMacTest.host[34].mac 	time1:count 	0
attr source  time1
attr title  "time1, count"
scalar ldMacTest.host[34].mac 	time0:count 	58174
attr source  time0
attr title  "time0, count"
scalar ldMacTest.host[34].mac 	sentPkCount:count 	827966
attr interpolationmode  node
attr source  sentPkCount
attr title  "pkCount, count"
scalar ldMacTest.host[34].mac 	discardPkCount:count 	0
attr interpolationmode  node
attr source  discardPkCount
attr title  "discardPkCount, count"
scalar ldMacTest.host[34].mac 	queueTime:mean 	0.12283614142141
attr source  queueTime
attr title  "queueTime, mean"
scalar ldMacTest.host[35].app 	errorCount:count 	0
attr interpolationmode  node
attr source  errorCount
attr title  "errorCount, count"
scalar ldMacTest.host[35].app 	appPkCount:count 	934492
attr interpolationmode  node
attr source  appPkCount
attr title  "appPkCount, count"
scalar ldMacTest.host[35].mac 	time10:count 	0
attr source  time10
attr title  "time10, count"
scalar ldMacTest.host[35].mac 	time9:count 	2021
attr source  time9
attr title  "time9, count"
scalar ldMacTest.host[35].mac 	time8:count 	7163
attr source  time8
attr title  "time8, count"
scalar ldMacTest.host[35].mac 	time7:count 	11839
attr source  time7
attr title  "time7, count"
scalar ldMacTest.host[35].mac 	time6:count 	13857
attr source  time6
attr title  "time6, count"
scalar ldMacTest.host[35].mac 	time5:count 	19288
attr source  time5
attr title  "time5, count"
scalar ldMacTest.host[35].mac 	time4:count 	3491
attr source  time4
attr title  "time4, count"
scalar ldMacTest.host[35].mac 	time3:count 	8966
attr source  time3
attr title  "time3, count"
scalar ldMacTest.host[35].mac 	time2:count 	2572
attr source  time2
attr title  "time2, count"
scalar ldMacTest.host[35].mac 	time1:count 	0
attr source  time1
attr title  "time1, count"
scalar ldMacTest.host[35].mac 	time0:count 	69197
attr source  time0
attr title  "time0, count"
scalar ldMacTest.host[35].mac 	sentPkCount:count 	934492
attr interpolationmode  node
attr source  sentPkCount
attr title  "pkCount, count"
scalar ldMacTest.host[35].mac 	discardPkCount:count 	0
attr interpolationmode  node
attr source  discardPkCount
attr title  "discardPkCount, count"
scalar ldMacTest.host[35].mac 	queueTime:mean 	0.11112113587182
attr source  queueTime
attr title  "queueTime, mean"
scalar ldMacTest.host[36].app 	errorCount:count 	0
attr interpolationmode  node
attr source  errorCount
attr title  "errorCount, count"
scalar ldMacTest.host[36].app 	appPkCount:count 	952389
attr interpolationmode  node
attr source  appPkCount
attr title  "appPkCount, count"
scalar ldMacTest.host[36].mac 	time10:count 	3387
attr source  time10
attr title  "time10, count"
scalar ldMacTest.host[36].mac 	time9:count 	3391
attr source  time9
attr title  "time9, count"
scalar ldMacTest.host[36].mac 	time8:count 	3373
attr source  time8
attr title  "time8, count"
scalar ldMacTest.host[36].mac 	time7:count 	3373
attr source  time7
attr title  "time7, count"
scalar ldMacTest.host[36].mac 	time6:count 	4171
attr source  time6
attr title  "time6, count"
scalar ldMacTest.host[36].mac 	time5:count 	6778
attr source  time5
attr title  "time5, count"
scalar ldMacTest.host[36].mac 	time4:count 	6930
attr source  time4
attr title  "time4, count"
scalar ldMacTest.host[36].mac 	time3:count 	8780
attr source  time3
attr title  "time3, count"
scalar ldMacTest.host[36].mac 	time2:count 	21071
attr source  time2
attr title  "time2, count"
scalar ldMacTest.host[36].mac 	time1:count 	3139
attr source  time1
attr title  "time1, count"
scalar ldMacTest.host[36].mac 	time0:count 	64393
attr source  time0
attr title  "time0, count"
scalar ldMacTest.host[36].mac 	sentPkCount:count 	892726
attr interpolationmode  node
attr source  sentPkCount
attr title  "pkCount, count"
scalar ldMacTest.host[36].mac 	discardPkCount:count 	0
attr interpolationmode  node
attr source  discardPkCount
attr title  "discardPkCount, count"
scalar ldMacTest.host[36].mac 	queueTime:mean 	0.10300823318958
attr source  queueTime
attr title  "queueTime, mean"
scalar ldMacTest.host[37].app 	errorCount:count 	0
attr interpolationmode  node
attr source  errorCount
attr title  "errorCount, count"
scalar ldMacTest.host[37].app 	appPkCount:count 	943757
attr interpolationmode  node
attr source  appPkCount
attr title  "appPkCount, count"
scalar ldMacTest.host[37].mac 	time10:count 	3497
attr source  time10
attr title  "time10, count"
scalar ldMacTest.host[37].mac 	time9:count 	3570
attr source  time9
attr title  "time9, count"
scalar ldMacTest.host[37].mac 	time8:count 	3734
attr source  time8
attr title  "time8, count"
scalar ldMacTest.host[37].mac 	time7:count 	4033
attr source  time7
attr title  "time7, count"
scalar ldMacTest.host[37].mac 	time6:count 	9332
attr source  time6
attr title  "time6, count"
scalar ldMacTest.host[37].mac 	time5:count 	15361
attr source  time5
attr title  "time5, count"
scalar ldMacTest.host[37].mac 	time4:count 	11536
attr source  time4
attr title  "time4, count"
scalar ldMacTest.host[37].mac 	time3:count 	12370
attr source  time3
attr title  "time3, count"
scalar ldMacTest.host[37].mac 	time2:count 	5626
attr source  time2
attr title  "time2, count"
scalar ldMacTest.host[37].mac 	time1:count 	0
attr source  time1
attr title  "time1, count"
scalar ldMacTest.host[37].mac 	time0:count 	69059
attr source  time0
attr title  "time0, count"
scalar ldMacTest.host[37].mac 	sentPkCount:count 	943547
attr interpolationmode  node
attr source  sentPkCount
attr title  "pkCount, count"
scalar ldMacTest.host[37].mac 	discardPkCount:count 	0
attr interpolationmode  node
attr source  discardPkCount
attr title  "discardPkCount, count"
scalar ldMacTest.host[37].mac 	queueTime:mean 	0.10751449064155
attr source  queueTime
attr title  "queueTime, mean"
scalar ldMacTest.host[38].app 	errorCount:count 	0
attr interpolationmode  node
attr source  errorCount
attr title  "errorCount, count"
scalar ldMacTest.host[38].app 	appPkCount:count 	962709
attr interpolationmode  node
attr source  appPkCount
attr title  "appPkCount, count"
scalar ldMacTest.host[38].mac 	time10:count 	0
attr source  time10
attr title  "time10, count"
scalar ldMacTest.host[38].mac 	time9:count 	0
attr source  time9
attr title  "time9, count"
scalar ldMacTest.host[38].mac 	time8:count 	4486
attr source  time8
attr title  "time8, count"
scalar ldMacTest.host[38].mac 	time7:count 	9323
attr source  time7
attr title  "time7, count"
scalar ldMacTest.host[38].mac 	time6:count 	9347
attr source  time6
attr title  "time6, count"
scalar ldMacTest.host[38].mac 	time5:count 	9345
attr source  time5
attr title  "time5, count"
scalar ldMacTest.host[38].mac 	time4:count 	9357
attr source  time4
attr title  "time4, count"
scalar ldMacTest.host[38].mac 	time3:count 	9703
attr source  time3
attr title  "time3, count"
scalar ldMacTest.host[38].mac 	time2:count 	12174
attr source  time2
attr title  "time2, count"
scalar ldMacTest.host[38].mac 	time1:count 	5434
attr source  time1
attr title  "time1, count"
scalar ldMacTest.host[38].mac 	time0:count 	69169
attr source  time0
attr title  "time0, count"
scalar ldMacTest.host[38].mac 	sentPkCount:count 	962537
attr interpolationmode  node
attr source  sentPkCount
attr title  "pkCount, count"
scalar ldMacTest.host[38].mac 	discardPkCount:count 	0
attr interpolationmode  node
attr source  discardPkCount
attr title  "discardPkCount, count"
scalar ldMacTest.host[38].mac 	queueTime:mean 	0.099622671277141
attr source  queueTime
attr title  "queueTime, mean"
scalar ldMacTest.host[39].app 	errorCount:count 	0
attr interpolationmode  node
attr source  errorCount
attr title  "errorCount, count"
scalar ldMacTest.host[39].app 	appPkCount:count 	944970
attr interpolationmode  node
attr source  appPkCount
attr title  "appPkCount, count"
scalar ldMacTest.host[39].mac 	time10:count 	9569
attr source  time10
attr title  "time10, count"
scalar ldMacTest.host[39].mac 	time9:count 	15879
attr source  time9
attr title  "time9, count"
scalar ldMacTest.host[39].mac 	time8:count 	6430
attr source  time8
attr title  "time8, count"
scalar ldMacTest.host[39].mac 	time7:count 	3607
attr source  time7
attr title  "time7, count"
scalar ldMacTest.host[39].mac 	time6:count 	3658
attr source  time6
attr title  "time6, count"
scalar ldMacTest.host[39].mac 	time5:count 	3746
attr source  time5
attr title  "time5, count"
scalar ldMacTest.host[39].mac 	time4:count 	5227
attr source  time4
attr title  "time4, count"
scalar ldMacTest.host[39].mac 	time3:count 	9639
attr source  time3
attr title  "time3, count"
scalar ldMacTest.host[39].mac 	time2:count 	7971
attr source  time2
attr title  "time2, count"
scalar ldMacTest.host[39].mac 	time1:count 	0
attr source  time1
attr title  "time1, count"
scalar ldMacTest.host[39].mac 	time0:count 	65726
attr source  time0
attr title  "time0, count"
scalar ldMacTest.host[39].mac 	sentPkCount:count 	899409
attr interpolationmode  node
attr source  sentPkCount
attr title  "pkCount, count"
scalar ldMacTest.host[39].mac 	discardPkCount:count 	0
attr interpolationmode  node
attr source  discardPkCount
attr title  "discardPkCount, count"
scalar ldMacTest.host[39].mac 	queueTime:mean 	0.12174567840446
attr source  queueTime
attr title  "queueTime, mean"
scalar ldMacTest.host[40].app 	errorCount:count 	0
attr interpolationmode  node
attr source  errorCount
attr title  "errorCount, count"
scalar ldMacTest.host[40].app 	appPkCount:count 	950145
attr interpolationmode  node
attr source  appPkCount
attr title  "appPkCount, count"
scalar ldMacTest.host[40].mac 	time10:count 	2338
attr source  time10
attr title  "time10, count"
scalar ldMacTest.host[40].mac 	time9:count 	15650
attr source  time9
attr title  "time9, count"
scalar ldMacTest.host[40].mac 	time8:count 	6785
attr source  time8
attr title  "time8, count"
scalar ldMacTest.host[40].mac 	time7:count 	6763
attr source  time7
attr title  "time7, count"
scalar ldMacTest.host[40].mac 	time6:count 	6863
attr source  time6
attr title  "time6, count"
scalar ldMacTest.host[40].mac 	time5:count 	7164
attr source  time5
attr title  "time5, count"
scalar ldMacTest.host[40].mac 	time4:count 	7687
attr source  time4
attr title  "time4, count"
scalar ldMacTest.host[40].mac 	time3:count 	9677
attr source  time3
attr title  "time3, count"
scalar ldMacTest.host[40].mac 	time2:count 	6212
attr source  time2
attr title  "time2, count"
scalar ldMacTest.host[40].mac 	time1:count 	0
attr source  time1
attr title  "time1, count"
scalar ldMacTest.host[40].mac 	time0:count 	69139
attr source  time0
attr title  "time0, count"
scalar ldMacTest.host[40].mac 	sentPkCount:count 	949919
attr interpolationmode  node
attr source  sentPkCount
attr title  "pkCount, count"
scalar ldMacTest.host[40].mac 	discardPkCount:count 	0
attr interpolationmode  node
attr source  discardPkCount
attr title  "discardPkCount, count"
scalar ldMacTest.host[40].mac 	queueTime:mean 	0.11823696062505
attr source  queueTime
attr title  "queueTime, mean"
scalar ldMacTest.host[41].app 	errorCount:count 	0
attr interpolationmode  node
attr source  errorCount
attr title  "errorCount, count"
scalar ldMacTest.host[41].app 	appPkCount:count 	971847
attr interpolationmode  node
attr source  appPkCount
attr title  "appPkCount, count"
scalar ldMacTest.host[41].mac 	time10:count 	0
attr source  time10
attr title  "time10, count"
scalar ldMacTest.host[41].mac 	time9:count 	9258
attr source  time9
attr title  "time9, count"
scalar ldMacTest.host[41].mac 	time8:count 	3284
attr source  time8
attr title  "time8, count"
scalar ldMacTest.host[41].mac 	time7:count 	3362
attr source  time7
attr title  "time7, count"
scalar ldMacTest.host[41].mac 	time6:count 	4559
attr source  time6
attr title  "time6, count"
scalar ldMacTest.host[41].mac 	time5:count 	7165
attr source  time5
attr title  "time5, count"
scalar ldMacTest.host[41].mac 	time4:count 	9010
attr source  time4
attr title  "time4, count"
scalar ldMacTest.host[41].mac 	time3:count 	13023
attr source  time3
attr title  "time3, count"
scalar ldMacTest.host[41].mac 	time2:count 	13171
attr source  time2
attr title  "time2, count"
scalar ldMacTest.host[41].mac 	time1:count 	6227
attr source  time1
attr title  "time1, count"
scalar ldMacTest.host[41].mac 	time0:count 	69059
attr source  time0
attr title  "time0, count"
scalar ldMacTest.host[41].mac 	sentPkCount:count 	971847
attr interpolationmode  node
attr source  sentPkCount
attr title  "pkCount, count"
scalar ldMacTest.host[41].mac 	discardPkCount:count 	0
attr interpolationmode  node
attr source  discardPkCount
attr title  "discardPkCount, count"
scalar ldMacTest.host[41].mac 	queueTime:mean 	0.10425744831997
attr source  queueTime
attr title  "queueTime, mean"
scalar ldMacTest.host[42].app 	errorCount:count 	0
attr interpolationmode  node
attr source  errorCount
attr title  "errorCount, count"
scalar ldMacTest.host[42].app 	appPkCount:count 	950153
attr interpolationmode  node
attr source  appPkCount
attr title  "appPkCount, count"
scalar ldMacTest.host[42].mac 	time10:count 	0
attr source  time10
attr title  "time10, count"
scalar ldMacTest.host[42].mac 	time9:count 	1691
attr source  time9
attr title  "time9, count"
scalar ldMacTest.host[42].mac 	time8:count 	14327
attr source  time8
attr title  "time8, count"
scalar ldMacTest.host[42].mac 	time7:count 	19371
attr source  time7
attr title  "time7, count"
scalar ldMacTest.host[42].mac 	time6:count 	16146
attr source  time6
attr title  "time6, count"
scalar ldMacTest.host[42].mac 	time5:count 	11465
attr source  time5
attr title  "time5, count"
scalar ldMacTest.host[42].mac 	time4:count 	6104
attr source  time4
attr title  "time4, count"
scalar ldMacTest.host[42].mac 	time3:count 	0
attr source  time3
attr title  "time3, count"
scalar ldMacTest.host[42].mac 	time2:count 	0
attr source  time2
attr title  "time2, count"
scalar ldMacTest.host[42].mac 	time1:count 	0
attr source  time1
attr title  "time1, count"
scalar ldMacTest.host[42].mac 	time0:count 	69104
attr source  time0
attr title  "time0, count"
scalar ldMacTest.host[42].mac 	sentPkCount:count 	950153
attr interpolationmode  node
attr source  sentPkCount
attr title  "pkCount, count"
scalar ldMacTest.host[42].mac 	discardPkCount:count 	0
attr interpolationmode  node
attr source  discardPkCount
attr title  "discardPkCount, count"
scalar ldMacTest.host[42].mac 	queueTime:mean 	0.12125264979433
attr source  queueTime
attr title  "queueTime, mean"
scalar ldMacTest.host[43].app 	errorCount:count 	0
attr interpolationmode  node
attr source  errorCount
attr title  "errorCount, count"
scalar ldMacTest.host[43].app 	appPkCount:count 	951754
attr interpolationmode  node
attr source  appPkCount
attr title  "appPkCount, count"
scalar ldMacTest.host[43].mac 	time10:count 	3657
attr source  time10
attr title  "time10, count"
scalar ldMacTest.host[43].mac 	time9:count 	3201
attr source  time9
attr title  "time9, count"
scalar ldMacTest.host[43].mac 	time8:count 	4110
attr source  time8
attr title  "time8, count"
scalar ldMacTest.host[43].mac 	time7:count 	20645
attr source  time7
attr title  "time7, count"
scalar ldMacTest.host[43].mac 	time6:count 	6500
attr source  time6
attr title  "time6, count"
scalar ldMacTest.host[43].mac 	time5:count 	6610
attr source  time5
attr title  "time5, count"
scalar ldMacTest.host[43].mac 	time4:count 	6757
attr source  time4
attr title  "time4, count"
scalar ldMacTest.host[43].mac 	time3:count 	7229
attr source  time3
attr title  "time3, count"
scalar ldMacTest.host[43].mac 	time2:count 	10351
attr source  time2
attr title  "time2, count"
scalar ldMacTest.host[43].mac 	time1:count 	0
attr source  time1
attr title  "time1, count"
scalar ldMacTest.host[43].mac 	time0:count 	69060
attr source  time0
attr title  "time0, count"
scalar ldMacTest.host[43].mac 	sentPkCount:count 	951754
attr interpolationmode  node
attr source  sentPkCount
attr title  "pkCount, count"
scalar ldMacTest.host[43].mac 	discardPkCount:count 	0
attr interpolationmode  node
attr source  discardPkCount
attr title  "discardPkCount, count"
scalar ldMacTest.host[43].mac 	queueTime:mean 	0.11406954407285
attr source  queueTime
attr title  "queueTime, mean"
scalar ldMacTest.host[44].app 	errorCount:count 	0
attr interpolationmode  node
attr source  errorCount
attr title  "errorCount, count"
scalar ldMacTest.host[44].app 	appPkCount:count 	950481
attr interpolationmode  node
attr source  appPkCount
attr title  "appPkCount, count"
scalar ldMacTest.host[44].mac 	time10:count 	0
attr source  time10
attr title  "time10, count"
scalar ldMacTest.host[44].mac 	time9:count 	414
attr source  time9
attr title  "time9, count"
scalar ldMacTest.host[44].mac 	time8:count 	4140
attr source  time8
attr title  "time8, count"
scalar ldMacTest.host[44].mac 	time7:count 	4463
attr source  time7
attr title  "time7, count"
scalar ldMacTest.host[44].mac 	time6:count 	13069
attr source  time6
attr title  "time6, count"
scalar ldMacTest.host[44].mac 	time5:count 	29588
attr source  time5
attr title  "time5, count"
scalar ldMacTest.host[44].mac 	time4:count 	17430
attr source  time4
attr title  "time4, count"
scalar ldMacTest.host[44].mac 	time3:count 	0
attr source  time3
attr title  "time3, count"
scalar ldMacTest.host[44].mac 	time2:count 	0
attr source  time2
attr title  "time2, count"
scalar ldMacTest.host[44].mac 	time1:count 	0
attr source  time1
attr title  "time1, count"
[...]
attr title  "time6, count"
scalar ldMacTest.host[48].mac 	time5:count 	21927
attr source  time5
attr title  "time5, count"
scalar ldMacTest.host[48].mac 	time4:count 	0
attr source  time4
attr title  "time4, count"
scalar ldMacTest.host[48].mac 	time3:count 	0
attr source  time3
attr title  "time3, count"
scalar ldMacTest.host[48].mac 	time2:count 	0
attr source  time2
attr title  "time2, count"
scalar ldMacTest.host[48].mac 	time1:count 	0
attr source  time1
attr title  "time1, count"
scalar ldMacTest.host[48].mac 	time0:count 	69097
attr source  time0
attr title  "time0, count"
scalar ldMacTest.host[48].mac 	sentPkCount:count 	964783
attr interpolationmode  node
attr source  sentPkCount
attr title  "pkCount, count"
scalar ldMacTest.host[48].mac 	discardPkCount:count 	0
attr interpolationmode  node
attr source  discardPkCount
attr title  "discardPkCount, count"
scalar ldMacTest.host[48].mac 	queueTime:mean 	0.12252331883354
attr source  queueTime
attr title  "queueTime, mean"
scalar ldMacTest.host[49].app 	errorCount:count 	0
attr interpolationmode  node
attr source  errorCount
attr title  "errorCount, count"
scalar ldMacTest.host[49].app 	appPkCount:count 	971325
attr interpolationmode  node
attr source  appPkCount
attr title  "appPkCount, count"
scalar ldMacTest.host[49].mac 	time10:count 	1635
attr source  time10
attr title  "time10, count"
scalar ldMacTest.host[49].mac 	time9:count 	5846
attr source  time9
attr title  "time9, count"
scalar ldMacTest.host[49].mac 	time8:count 	7439
attr source  time8
attr title  "time8, count"
scalar ldMacTest.host[49].mac 	time7:count 	7921
attr source  time7
attr title  "time7, count"
scalar ldMacTest.host[49].mac 	time6:count 	8884
attr source  time6
attr title  "time6, count"
scalar ldMacTest.host[49].mac 	time5:count 	21602
attr source  time5
attr title  "time5, count"
scalar ldMacTest.host[49].mac 	time4:count 	15818
attr source  time4
attr title  "time4, count"
scalar ldMacTest.host[49].mac 	time3:count 	0
attr source  time3
attr title  "time3, count"
scalar ldMacTest.host[49].mac 	time2:count 	0
attr source  time2
attr title  "time2, count"
scalar ldMacTest.host[49].mac 	time1:count 	0
attr source  time1
attr title  "time1, count"
scalar ldMacTest.host[49].mac 	time0:count 	69145
attr source  time0
attr title  "time0, count"
scalar ldMacTest.host[49].mac 	sentPkCount:count 	971325
attr interpolationmode  node
attr source  sentPkCount
attr title  "pkCount, count"
scalar ldMacTest.host[49].mac 	discardPkCount:count 	0
attr interpolationmode  node
attr source  discardPkCount
attr title  "discardPkCount, count"
scalar ldMacTest.host[49].mac 	queueTime:mean 	0.11463556536756
attr source  queueTime
attr title  "queueTime, mean"
scalar ldMacTest.host[50].app 	errorCount:count 	0
attr interpolationmode  node
attr source  errorCount
attr title  "errorCount, count"
scalar ldMacTest.host[50].app 	appPkCount:count 	964396
attr interpolationmode  node
attr source  appPkCount
attr title  "appPkCount, count"
scalar ldMacTest.host[50].mac 	time10:count 	6966
attr source  time10
attr title  "time10, count"
scalar ldMacTest.host[50].mac 	time9:count 	7211
attr source  time9
attr title  "time9, count"
scalar ldMacTest.host[50].mac 	time8:count 	7515
attr source  time8
attr title  "time8, count"
scalar ldMacTest.host[50].mac 	time7:count 	8198
attr source  time7
attr title  "time7, count"
scalar ldMacTest.host[50].mac 	time6:count 	12429
attr source  time6
attr title  "time6, count"
scalar ldMacTest.host[50].mac 	time5:count 	5225
attr source  time5
attr title  "time5, count"
scalar ldMacTest.host[50].mac 	time4:count 	3385
attr source  time4
attr title  "time4, count"
scalar ldMacTest.host[50].mac 	time3:count 	3462
attr source  time3
attr title  "time3, count"
scalar ldMacTest.host[50].mac 	time2:count 	4384
attr source  time2
attr title  "time2, count"
scalar ldMacTest.host[50].mac 	time1:count 	5846
attr source  time1
attr title  "time1, count"
scalar ldMacTest.host[50].mac 	time0:count 	64621
attr source  time0
attr title  "time0, count"
scalar ldMacTest.host[50].mac 	sentPkCount:count 	903749
attr interpolationmode  node
attr source  sentPkCount
attr title  "pkCount, count"
scalar ldMacTest.host[50].mac 	discardPkCount:count 	0
attr interpolationmode  node
attr source  discardPkCount
attr title  "discardPkCount, count"
scalar ldMacTest.host[50].mac 	queueTime:mean 	0.12041315137077
attr source  queueTime
attr title  "queueTime, mean"
scalar ldMacTest.host[51].app 	errorCount:count 	0
attr interpolationmode  node
attr source  errorCount
attr title  "errorCount, count"
scalar ldMacTest.host[51].app 	appPkCount:count 	945570
attr interpolationmode  node
attr source  appPkCount
attr title  "appPkCount, count"
scalar ldMacTest.host[51].mac 	time10:count 	0
attr source  time10
attr title  "time10, count"
scalar ldMacTest.host[51].mac 	time9:count 	7201
attr source  time9
attr title  "time9, count"
scalar ldMacTest.host[51].mac 	time8:count 	9071
attr source  time8
attr title  "time8, count"
scalar ldMacTest.host[51].mac 	time7:count 	12222
attr source  time7
attr title  "time7, count"
scalar ldMacTest.host[51].mac 	time6:count 	10639
attr source  time6
attr title  "time6, count"
scalar ldMacTest.host[51].mac 	time5:count 	14339
attr source  time5
attr title  "time5, count"
scalar ldMacTest.host[51].mac 	time4:count 	14431
attr source  time4
attr title  "time4, count"
scalar ldMacTest.host[51].mac 	time3:count 	1250
attr source  time3
attr title  "time3, count"
scalar ldMacTest.host[51].mac 	time2:count 	0
attr source  time2
attr title  "time2, count"
scalar ldMacTest.host[51].mac 	time1:count 	0
attr source  time1
attr title  "time1, count"
scalar ldMacTest.host[51].mac 	time0:count 	69153
attr source  time0
attr title  "time0, count"
scalar ldMacTest.host[51].mac 	sentPkCount:count 	945570
attr interpolationmode  node
attr source  sentPkCount
attr title  "pkCount, count"
scalar ldMacTest.host[51].mac 	discardPkCount:count 	0
attr interpolationmode  node
attr source  discardPkCount
attr title  "discardPkCount, count"
scalar ldMacTest.host[51].mac 	queueTime:mean 	0.11778662015462
attr source  queueTime
attr title  "queueTime, mean"
scalar ldMacTest.host[52].app 	errorCount:count 	0
attr interpolationmode  node
attr source  errorCount
attr title  "errorCount, count"
scalar ldMacTest.host[52].app 	appPkCount:count 	956295
attr interpolationmode  node
attr source  appPkCount
attr title  "appPkCount, count"
scalar ldMacTest.host[52].mac 	time10:count 	4586
attr source  time10
attr title  "time10, count"
scalar ldMacTest.host[52].mac 	time9:count 	11505
attr source  time9
attr title  "time9, count"
scalar ldMacTest.host[52].mac 	time8:count 	13964
attr source  time8
attr title  "time8, count"
scalar ldMacTest.host[52].mac 	time7:count 	18148
attr source  time7
attr title  "time7, count"
scalar ldMacTest.host[52].mac 	time6:count 	13198
attr source  time6
attr title  "time6, count"
scalar ldMacTest.host[52].mac 	time5:count 	3423
attr source  time5
attr title  "time5, count"
scalar ldMacTest.host[52].mac 	time4:count 	3709
attr source  time4
attr title  "time4, count"
scalar ldMacTest.host[52].mac 	time3:count 	638
attr source  time3
attr title  "time3, count"
scalar ldMacTest.host[52].mac 	time2:count 	0
attr source  time2
attr title  "time2, count"
scalar ldMacTest.host[52].mac 	time1:count 	0
attr source  time1
attr title  "time1, count"
scalar ldMacTest.host[52].mac 	time0:count 	69171
attr source  time0
attr title  "time0, count"
scalar ldMacTest.host[52].mac 	sentPkCount:count 	956295
attr interpolationmode  node
attr source  sentPkCount
attr title  "pkCount, count"
scalar ldMacTest.host[52].mac 	discardPkCount:count 	0
attr interpolationmode  node
attr source  discardPkCount
attr title  "discardPkCount, count"
scalar ldMacTest.host[52].mac 	queueTime:mean 	0.13026877707174
attr source  queueTime
attr title  "queueTime, mean"
scalar ldMacTest.host[53].app 	errorCount:count 	0
attr interpolationmode  node
attr source  errorCount
attr title  "errorCount, count"
scalar ldMacTest.host[53].app 	appPkCount:count 	949387
attr interpolationmode  node
attr source  appPkCount
attr title  "appPkCount, count"
scalar ldMacTest.host[53].mac 	time10:count 	7538
attr source  time10
attr title  "time10, count"
scalar ldMacTest.host[53].mac 	time9:count 	8316
attr source  time9
attr title  "time9, count"
scalar ldMacTest.host[53].mac 	time8:count 	17472
attr source  time8
attr title  "time8, count"
scalar ldMacTest.host[53].mac 	time7:count 	15801
attr source  time7
attr title  "time7, count"
scalar ldMacTest.host[53].mac 	time6:count 	3322
attr source  time6
attr title  "time6, count"
scalar ldMacTest.host[53].mac 	time5:count 	3410
attr source  time5
attr title  "time5, count"
scalar ldMacTest.host[53].mac 	time4:count 	3485
attr source  time4
attr title  "time4, count"
scalar ldMacTest.host[53].mac 	time3:count 	3769
attr source  time3
attr title  "time3, count"
scalar ldMacTest.host[53].mac 	time2:count 	272
attr source  time2
attr title  "time2, count"
scalar ldMacTest.host[53].mac 	time1:count 	0
attr source  time1
attr title  "time1, count"
scalar ldMacTest.host[53].mac 	time0:count 	63385
attr source  time0
attr title  "time0, count"
scalar ldMacTest.host[53].mac 	sentPkCount:count 	874368
attr interpolationmode  node
attr source  sentPkCount
attr title  "pkCount, count"
scalar ldMacTest.host[53].mac 	discardPkCount:count 	0
attr interpolationmode  node
attr source  discardPkCount
attr title  "discardPkCount, count"
scalar ldMacTest.host[53].mac 	queueTime:mean 	0.12959247747301
attr source  queueTime
attr title  "queueTime, mean"
scalar ldMacTest.host[54].app 	errorCount:count 	0
attr interpolationmode  node
attr source  errorCount
attr title  "errorCount, count"
scalar ldMacTest.host[54].app 	appPkCount:count 	990268
attr interpolationmode  node
attr source  appPkCount
attr title  "appPkCount, count"
scalar ldMacTest.host[54].mac 	time10:count 	0
attr source  time10
attr title  "time10, count"
scalar ldMacTest.host[54].mac 	time9:count 	0
attr source  time9
attr title  "time9, count"
scalar ldMacTest.host[54].mac 	time8:count 	5611
attr source  time8
attr title  "time8, count"
scalar ldMacTest.host[54].mac 	time7:count 	11578
attr source  time7
attr title  "time7, count"
scalar ldMacTest.host[54].mac 	time6:count 	24387
attr source  time6
attr title  "time6, count"
scalar ldMacTest.host[54].mac 	time5:count 	3560
attr source  time5
attr title  "time5, count"
scalar ldMacTest.host[54].mac 	time4:count 	5196
attr source  time4
attr title  "time4, count"
scalar ldMacTest.host[54].mac 	time3:count 	8097
attr source  time3
attr title  "time3, count"
scalar ldMacTest.host[54].mac 	time2:count 	10546
attr source  time2
attr title  "time2, count"
scalar ldMacTest.host[54].mac 	time1:count 	0
attr source  time1
attr title  "time1, count"
scalar ldMacTest.host[54].mac 	time0:count 	68975
attr source  time0
attr title  "time0, count"
scalar ldMacTest.host[54].mac 	sentPkCount:count 	990268
attr interpolationmode  node
attr source  sentPkCount
attr title  "pkCount, count"
scalar ldMacTest.host[54].mac 	discardPkCount:count 	0
attr interpolationmode  node
attr source  discardPkCount
attr title  "discardPkCount, count"
scalar ldMacTest.host[54].mac 	queueTime:mean 	0.11278190138782
attr source  queueTime
attr title  "queueTime, mean"
scalar ldMacTest.host[55].app 	errorCount:count 	0
attr interpolationmode  node
attr source  errorCount
attr title  "errorCount, count"
scalar ldMacTest.host[55].app 	appPkCount:count 	959623
attr interpolationmode  node
attr source  appPkCount
attr title  "appPkCount, count"
scalar ldMacTest.host[55].mac 	time10:count 	13130
attr source  time10
attr title  "time10, count"
scalar ldMacTest.host[55].mac 	time9:count 	23036
attr source  time9
attr title  "time9, count"
scalar ldMacTest.host[55].mac 	time8:count 	3406
attr source  time8
attr title  "time8, count"
scalar ldMacTest.host[55].mac 	time7:count 	3395
attr source  time7
attr title  "time7, count"
scalar ldMacTest.host[55].mac 	time6:count 	3456
attr source  time6
attr title  "time6, count"
scalar ldMacTest.host[55].mac 	time5:count 	3543
attr source  time5
attr title  "time5, count"
scalar ldMacTest.host[55].mac 	time4:count 	3706
attr source  time4
attr title  "time4, count"
scalar ldMacTest.host[55].mac 	time3:count 	6139
attr source  time3
attr title  "time3, count"
scalar ldMacTest.host[55].mac 	time2:count 	9308
attr source  time2
attr title  "time2, count"
scalar ldMacTest.host[55].mac 	time1:count 	0
attr source  time1
attr title  "time1, count"
scalar ldMacTest.host[55].mac 	time0:count 	69119
attr source  time0
attr title  "time0, count"
scalar ldMacTest.host[55].mac 	sentPkCount:count 	959623
attr interpolationmode  node
attr source  sentPkCount
attr title  "pkCount, count"
scalar ldMacTest.host[55].mac 	discardPkCount:count 	0
attr interpolationmode  node
attr source  discardPkCount
attr title  "discardPkCount, count"
scalar ldMacTest.host[55].mac 	queueTime:mean 	0.1261651188844
attr source  queueTime
attr title  "queueTime, mean"
scalar ldMacTest.host[56].app 	errorCount:count 	0
attr interpolationmode  node
attr source  errorCount
attr title  "errorCount, count"
scalar ldMacTest.host[56].app 	appPkCount:count 	960224
attr interpolationmode  node
attr source  appPkCount
attr title  "appPkCount, count"
scalar ldMacTest.host[56].mac 	time10:count 	4386
attr source  time10
attr title  "time10, count"
scalar ldMacTest.host[56].mac 	time9:count 	6506
attr source  time9
attr title  "time9, count"
scalar ldMacTest.host[56].mac 	time8:count 	6595
attr source  time8
attr title  "time8, count"
scalar ldMacTest.host[56].mac 	time7:count 	6834
attr source  time7
attr title  "time7, count"
scalar ldMacTest.host[56].mac 	time6:count 	7226
attr source  time6
attr title  "time6, count"
scalar ldMacTest.host[56].mac 	time5:count 	18092
attr source  time5
attr title  "time5, count"
scalar ldMacTest.host[56].mac 	time4:count 	3275
attr source  time4
attr title  "time4, count"
scalar ldMacTest.host[56].mac 	time3:count 	4293
attr source  time3
attr title  "time3, count"
scalar ldMacTest.host[56].mac 	time2:count 	7882
attr source  time2
attr title  "time2, count"
scalar ldMacTest.host[56].mac 	time1:count 	3928
attr source  time1
attr title  "time1, count"
scalar ldMacTest.host[56].mac 	time0:count 	69017
attr source  time0
attr title  "time0, count"
scalar ldMacTest.host[56].mac 	sentPkCount:count 	960224
attr interpolationmode  node
attr source  sentPkCount
attr title  "pkCount, count"
scalar ldMacTest.host[56].mac 	discardPkCount:count 	0
attr interpolationmode  node
attr source  discardPkCount
attr title  "discardPkCount, count"
scalar ldMacTest.host[56].mac 	queueTime:mean 	0.11750974618335
attr source  queueTime
attr title  "queueTime, mean"
scalar ldMacTest.host[57].app 	errorCount:count 	0
attr interpolationmode  node
attr source  errorCount
attr title  "errorCount, count"
scalar ldMacTest.host[57].app 	appPkCount:count 	937630
attr interpolationmode  node
attr source  appPkCount
attr title  "appPkCount, count"
scalar ldMacTest.host[57].mac 	time10:count 	8200
attr source  time10
attr title  "time10, count"
scalar ldMacTest.host[57].mac 	time9:count 	14301
attr source  time9
attr title  "time9, count"
scalar ldMacTest.host[57].mac 	time8:count 	18149
attr source  time8
attr title  "time8, count"
scalar ldMacTest.host[57].mac 	time7:count 	19753
attr source  time7
attr title  "time7, count"
scalar ldMacTest.host[57].mac 	time6:count 	3985
attr source  time6
attr title  "time6, count"
scalar ldMacTest.host[57].mac 	time5:count 	4684
attr source  time5
attr title  "time5, count"
scalar ldMacTest.host[57].mac 	time4:count 	161
attr source  time4
attr title  "time4, count"
scalar ldMacTest.host[57].mac 	time3:count 	0
attr source  time3
attr title  "time3, count"
scalar ldMacTest.host[57].mac 	time2:count 	0
attr source  time2
attr title  "time2, count"
scalar ldMacTest.host[57].mac 	time1:count 	0
attr source  time1
attr title  "time1, count"
scalar ldMacTest.host[57].mac 	time0:count 	69233
attr source  time0
attr title  "time0, count"
scalar ldMacTest.host[57].mac 	sentPkCount:count 	937630
attr interpolationmode  node
attr source  sentPkCount
attr title  "pkCount, count"
scalar ldMacTest.host[57].mac 	discardPkCount:count 	0
attr interpolationmode  node
attr source  discardPkCount
attr title  "discardPkCount, count"
scalar ldMacTest.host[57].mac 	queueTime:mean 	0.13478396648663
attr source  queueTime
attr title  "queueTime, mean"
scalar ldMacTest.host[58].app 	errorCount:count 	0
attr interpolationmode  node
attr source  errorCount
attr title  "errorCount, count"
scalar ldMacTest.host[58].app 	appPkCount:count 	967282
attr interpolationmode  node
attr source  appPkCount
attr title  "appPkCount, count"
scalar ldMacTest.host[58].mac 	time10:count 	6809
attr source  time10
attr title  "time10, count"
scalar ldMacTest.host[58].mac 	time9:count 	6895
attr source  time9
attr title  "time9, count"
scalar ldMacTest.host[58].mac 	time8:count 	6994
attr source  time8
attr title  "time8, count"
scalar ldMacTest.host[58].mac 	time7:count 	9661
attr source  time7
attr title  "time7, count"
scalar ldMacTest.host[58].mac 	time6:count 	20153
attr source  time6
attr title  "time6, count"
scalar ldMacTest.host[58].mac 	time5:count 	7019
attr source  time5
attr title  "time5, count"
scalar ldMacTest.host[58].mac 	time4:count 	3154
attr source  time4
attr title  "time4, count"
scalar ldMacTest.host[58].mac 	time3:count 	0
attr source  time3
attr title  "time3, count"
scalar ldMacTest.host[58].mac 	time2:count 	0
attr source  time2
attr title  "time2, count"
scalar ldMacTest.host[58].mac 	time1:count 	0
attr source  time1
attr title  "time1, count"
scalar ldMacTest.host[58].mac 	time0:count 	60685
attr source  time0
attr title  "time0, count"
scalar ldMacTest.host[58].mac 	sentPkCount:count 	849569
attr interpolationmode  node
attr source  sentPkCount
attr title  "pkCount, count"
scalar ldMacTest.host[58].mac 	discardPkCount:count 	0
attr interpolationmode  node
attr source  discardPkCount
attr title  "discardPkCount, count"
scalar ldMacTest.host[58].mac 	queueTime:mean 	0.12341775106314
attr source  queueTime
attr title  "queueTime, mean"
scalar ldMacTest.host[59].app 	errorCount:count 	0
attr interpolationmode  node
attr source  errorCount
attr title  "errorCount, count"
scalar ldMacTest.host[59].app 	appPkCount:count 	929070
attr interpolationmode  node
attr source  appPkCount
attr title  "appPkCount, count"
scalar ldMacTest.host[59].mac 	time10:count 	0
attr source  time10
attr title  "time10, count"
scalar ldMacTest.host[59].mac 	time9:count 	5599
attr source  time9
attr title  "time9, count"
scalar ldMacTest.host[59].mac 	time8:count 	6157
attr source  time8
attr title  "time8, count"
scalar ldMacTest.host[59].mac 	time7:count 	6440
attr source  time7
attr title  "time7, count"
scalar ldMacTest.host[59].mac 	time6:count 	9755
attr source  time6
attr title  "time6, count"
scalar ldMacTest.host[59].mac 	time5:count 	11977
attr source  time5
attr title  "time5, count"
scalar ldMacTest.host[59].mac 	time4:count 	14917
attr source  time4
attr title  "time4, count"
scalar ldMacTest.host[59].mac 	time3:count 	14282
attr source  time3
attr title  "time3, count"
scalar ldMacTest.host[59].mac 	time2:count 	0
attr source  time2
attr title  "time2, count"
scalar ldMacTest.host[59].mac 	time1:count 	0
attr source  time1
attr title  "time1, count"
scalar ldMacTest.host[59].mac 	time0:count 	69127
attr source  time0
attr title  "time0, count"
scalar ldMacTest.host[59].mac 	sentPkCount:count 	929070
attr interpolationmode  node
attr source  sentPkCount
attr title  "pkCount, count"
scalar ldMacTest.host[59].mac 	discardPkCount:count 	0
attr interpolationmode  node
attr source  discardPkCount
attr title  "discardPkCount, count"
scalar ldMacTest.host[59].mac 	queueTime:mean 	0.11177885478836
attr source  queueTime
attr title  "queueTime, mean"
