version 2
run LD-hostNum-7-20170327-21:48:08-11400
attr configname LD-hostNum
attr datetime 20170327-21:48:08
attr experiment LD-hostNum
attr inifile omnetpp.ini
attr iterationvars $0=80
attr iterationvars2 "$0=80, $repetition=0"
attr measurement $0=80
attr network ldMacTest
attr processid 11400
attr repetition 0
attr replication #0
attr resultdir results
attr runnumber 7
attr seedset 7
param **.ap.macType "\"LdApMac\""
param **.ap.mobility.initFromDisplayString false
param **.ap.mobility.initialX 300000m
param **.ap.mobility.initialY 300000m
param **.ap.mobility.initialZ 0m
param **.ap.mobilityType "\"StationaryMobility\""
param **.constraintAreaMaxX 600000m
param **.constraintAreaMaxY 600000m
param **.constraintAreaMaxZ 0m
param **.constraintAreaMinX 0m
param **.constraintAreaMinY 0m
param **.constraintAreaMinZ 0m
param **.hostNum 50
param **.host[*].app.burstInterval exponential(1.5s)
param **.host[*].app.burstNum "normal(200, 50)"
param **.host[*].app.packetLength 4096b
param **.host[*].app.startTime 0s
param **.host[*].appType "\"BurstGenerator\""
param **.host[*].mac.communicationRange 300000m
param **.host[*].mac.reqLength 100b
param **.host[*].mac.txRate 100000000bps
param **.host[*].macType "\"LdHostMac\""
param **.host[*].mobility.initFromDisplayString false
param **.host[*].mobility.speed uniform(80mps,100mps)
param **.host[*].mobility.updateInterval 1s
param **.host[*].mobility.waitTime 0s
param **.host[*].mobilityType "\"RandomWPMobility\""
param **.reqSlotNum 20
param **.slotLength 0.1ms
param **.slotNum 1000

scalar ldMacTest.ap.mac 	pkCount10:count 	4680859
attr interpolationmode  node
attr source  pkCount10
attr title  "pkCount10, count"
scalar ldMacTest.ap.mac 	pkCount9:count 	7016010
attr interpolationmode  node
attr source  pkCount9
attr title  "pkCount9, count"
scalar ldMacTest.ap.mac 	pkCount8:count 	9658432
attr interpolationmode  node
attr source  pkCount8
attr title  "pkCount8, count"
scalar ldMacTest.ap.mac 	pkCount7:count 	9725523
attr interpolationmode  node
attr source  pkCount7
attr title  "pkCount7, count"
scalar ldMacTest.ap.mac 	pkCount6:count 	8537937
attr interpolationmode  node
attr source  pkCount6
attr title  "pkCount6, count"
scalar ldMacTest.ap.mac 	pkCount5:count 	8429008
attr interpolationmode  node
attr source  pkCount5
attr title  "pkCount5, count"
scalar ldMacTest.ap.mac 	pkCount4:count 	9052493
attr interpolationmode  node
attr source  pkCount4
attr title  "pkCount4, count"
scalar ldMacTest.ap.mac 	pkCount3:count 	7502796
attr interpolationmode  node
attr source  pkCount3
attr title  "pkCount3, count"
scalar ldMacTest.ap.mac 	pkCount2:count 	3894834
attr interpolationmode  node
attr source  pkCount2
attr title  "pkCount2, count"
scalar ldMacTest.ap.mac 	pkCount1:count 	1843383
attr interpolationmode  node
attr source  pkCount1
attr title  "pkCount1, count"
scalar ldMacTest.ap.mac 	pkCount:count 	70341275
attr interpolationmode  node
attr source  pkCount
attr title  "pkCount, count"
scalar ldMacTest.host[0].app 	errorCount:count 	0
attr interpolationmode  node
attr source  errorCount
attr title  "errorCount, count"
scalar ldMacTest.host[0].app 	appPkCount:count 	931668
attr interpolationmode  node
attr source  appPkCount
attr title  "appPkCount, count"
scalar ldMacTest.host[0].mac 	time10:count 	2330
attr source  time10
attr title  "time10, count"
scalar ldMacTest.host[0].mac 	time9:count 	2055
attr source  time9
attr title  "time9, count"
scalar ldMacTest.host[0].mac 	time8:count 	502
attr source  time8
attr title  "time8, count"
scalar ldMacTest.host[0].mac 	time7:count 	32
attr source  time7
attr title  "time7, count"
scalar ldMacTest.host[0].mac 	time6:count 	33
attr source  time6
attr title  "time6, count"
scalar ldMacTest.host[0].mac 	time5:count 	110
attr source  time5
attr title  "time5, count"
scalar ldMacTest.host[0].mac 	time4:count 	574
attr source  time4
attr title  "time4, count"
scalar ldMacTest.host[0].mac 	time3:count 	167
attr source  time3
attr title  "time3, count"
scalar ldMacTest.host[0].mac 	time2:count 	0
attr source  time2
attr title  "time2, count"
scalar ldMacTest.host[0].mac 	time1:count 	0
attr source  time1
attr title  "time1, count"
scalar ldMacTest.host[0].mac 	time0:count 	5803
attr source  time0
attr title  "time0, count"
scalar ldMacTest.host[0].mac 	sentPkCount:count 	929842
attr interpolationmode  node
attr source  sentPkCount
attr title  "pkCount, count"
scalar ldMacTest.host[0].mac 	discardPkCount:count 	0
attr interpolationmode  node
attr source  discardPkCount
attr title  "discardPkCount, count"
scalar ldMacTest.host[0].mac 	queueTime:mean 	50.591255309253
attr source  queueTime
attr title  "queueTime, mean"
scalar ldMacTest.host[1].app 	errorCount:count 	0
attr interpolationmode  node
attr source  errorCount
attr title  "errorCount, count"
scalar ldMacTest.host[1].app 	appPkCount:count 	938423
attr interpolationmode  node
attr source  appPkCount
attr title  "appPkCount, count"
scalar ldMacTest.host[1].mac 	time10:count 	1444
attr source  time10
attr title  "time10, count"
scalar ldMacTest.host[1].mac 	time9:count 	2716
attr source  time9
attr title  "time9, count"
scalar ldMacTest.host[1].mac 	time8:count 	824
attr source  time8
attr title  "time8, count"
scalar ldMacTest.host[1].mac 	time7:count 	248
attr source  time7
attr title  "time7, count"
scalar ldMacTest.host[1].mac 	time6:count 	219
attr source  time6
attr title  "time6, count"
scalar ldMacTest.host[1].mac 	time5:count 	54
attr source  time5
attr title  "time5, count"
scalar ldMacTest.host[1].mac 	time4:count 	219
attr source  time4
attr title  "time4, count"
scalar ldMacTest.host[1].mac 	time3:count 	354
attr source  time3
attr title  "time3, count"
scalar ldMacTest.host[1].mac 	time2:count 	56
attr source  time2
attr title  "time2, count"
scalar ldMacTest.host[1].mac 	time1:count 	531
attr source  time1
attr title  "time1, count"
scalar ldMacTest.host[1].mac 	time0:count 	6665
attr source  time0
attr title  "time0, count"
scalar ldMacTest.host[1].mac 	sentPkCount:count 	920776
attr interpolationmode  node
attr source  sentPkCount
attr title  "pkCount, count"
scalar ldMacTest.host[1].mac 	discardPkCount:count 	0
attr interpolationmode  node
attr source  discardPkCount
attr title  "discardPkCount, count"
scalar ldMacTest.host[1].mac 	queueTime:mean 	35.679524333404
attr source  queueTime
attr title  "queueTime, mean"
scalar ldMacTest.host[2].app 	errorCount:count 	0
attr interpolationmode  node
attr source  errorCount
attr title  "errorCount, count"
scalar ldMacTest.host[2].app 	appPkCount:count 	973895
attr interpolationmode  node
attr source  appPkCount
attr title  "appPkCount, count"
scalar ldMacTest.host[2].mac 	time10:count 	0
attr source  time10
attr title  "time10, count"
scalar ldMacTest.host[2].mac 	time9:count 	0
attr source  time9
attr title  "time9, count"
scalar ldMacTest.host[2].mac 	time8:count 	237
attr source  time8
attr title  "time8, count"
scalar ldMacTest.host[2].mac 	time7:count 	32
attr source  time7
attr title  "time7, count"
scalar ldMacTest.host[2].mac 	time6:count 	27
attr source  time6
attr title  "time6, count"
scalar ldMacTest.host[2].mac 	time5:count 	4256
attr source  time5
attr title  "time5, count"
scalar ldMacTest.host[2].mac 	time4:count 	591
attr source  time4
attr title  "time4, count"
scalar ldMacTest.host[2].mac 	time3:count 	0
attr source  time3
attr title  "time3, count"
scalar ldMacTest.host[2].mac 	time2:count 	0
attr source  time2
attr title  "time2, count"
scalar ldMacTest.host[2].mac 	time1:count 	0
attr source  time1
attr title  "time1, count"
scalar ldMacTest.host[2].mac 	time0:count 	5143
attr source  time0
attr title  "time0, count"
scalar ldMacTest.host[2].mac 	sentPkCount:count 	926072
attr interpolationmode  node
attr source  sentPkCount
attr title  "pkCount, count"
scalar ldMacTest.host[2].mac 	discardPkCount:count 	29302
attr interpolationmode  node
attr source  discardPkCount
attr title  "discardPkCount, count"
scalar ldMacTest.host[2].mac 	queueTime:mean 	101.48752626581
attr source  queueTime
attr title  "queueTime, mean"
scalar ldMacTest.host[3].app 	errorCount:count 	0
attr interpolationmode  node
attr source  errorCount
attr title  "errorCount, count"
scalar ldMacTest.host[3].app 	appPkCount:count 	936799
attr interpolationmode  node
attr source  appPkCount
attr title  "appPkCount, count"
scalar ldMacTest.host[3].mac 	time10:count 	0
attr source  time10
attr title  "time10, count"
scalar ldMacTest.host[3].mac 	time9:count 	0
attr source  time9
attr title  "time9, count"
scalar ldMacTest.host[3].mac 	time8:count 	78
attr source  time8
attr title  "time8, count"
scalar ldMacTest.host[3].mac 	time7:count 	4463
attr source  time7
attr title  "time7, count"
scalar ldMacTest.host[3].mac 	time6:count 	538
attr source  time6
attr title  "time6, count"
scalar ldMacTest.host[3].mac 	time5:count 	313
attr source  time5
attr title  "time5, count"
scalar ldMacTest.host[3].mac 	time4:count 	49
attr source  time4
attr title  "time4, count"
scalar ldMacTest.host[3].mac 	time3:count 	48
attr source  time3
attr title  "time3, count"
scalar ldMacTest.host[3].mac 	time2:count 	50
attr source  time2
attr title  "time2, count"
scalar ldMacTest.host[3].mac 	time1:count 	33
attr source  time1
attr title  "time1, count"
scalar ldMacTest.host[3].mac 	time0:count 	5572
attr source  time0
attr title  "time0, count"
scalar ldMacTest.host[3].mac 	sentPkCount:count 	926992
attr interpolationmode  node
attr source  sentPkCount
attr title  "pkCount, count"
scalar ldMacTest.host[3].mac 	discardPkCount:count 	7567
attr interpolationmode  node
attr source  discardPkCount
attr title  "discardPkCount, count"
scalar ldMacTest.host[3].mac 	queueTime:mean 	78.794365067479
attr source  queueTime
attr title  "queueTime, mean"
scalar ldMacTest.host[4].app 	errorCount:count 	0
attr interpolationmode  node
attr source  errorCount
attr title  "errorCount, count"
scalar ldMacTest.host[4].app 	appPkCount:count 	936916
attr interpolationmode  node
attr source  appPkCount
attr title  "appPkCount, count"
scalar ldMacTest.host[4].mac 	time10:count 	35
attr source  time10
attr title  "time10, count"
scalar ldMacTest.host[4].mac 	time9:count 	27
attr source  time9
attr title  "time9, count"
scalar ldMacTest.host[4].mac 	time8:count 	34
attr source  time8
attr title  "time8, count"
scalar ldMacTest.host[4].mac 	time7:count 	813
attr source  time7
attr title  "time7, count"
scalar ldMacTest.host[4].mac 	time6:count 	2989
attr source  time6
attr title  "time6, count"
scalar ldMacTest.host[4].mac 	time5:count 	1693
attr source  time5
attr title  "time5, count"
scalar ldMacTest.host[4].mac 	time4:count 	469
attr source  time4
attr title  "time4, count"
scalar ldMacTest.host[4].mac 	time3:count 	108
attr source  time3
attr title  "time3, count"
scalar ldMacTest.host[4].mac 	time2:count 	0
attr source  time2
attr title  "time2, count"
scalar ldMacTest.host[4].mac 	time1:count 	0
attr source  time1
attr title  "time1, count"
scalar ldMacTest.host[4].mac 	time0:count 	6168
attr source  time0
attr title  "time0, count"
scalar ldMacTest.host[4].mac 	sentPkCount:count 	925624
attr interpolationmode  node
attr source  sentPkCount
attr title  "pkCount, count"
scalar ldMacTest.host[4].mac 	discardPkCount:count 	0
attr interpolationmode  node
attr source  discardPkCount
attr title  "discardPkCount, count"
scalar ldMacTest.host[4].mac 	queueTime:mean 	24.983543565131
attr source  queueTime
attr title  "queueTime, mean"
scalar ldMacTest.host[5].app 	errorCount:count 	0
attr interpolationmode  node
attr source  errorCount
attr title  "errorCount, count"
scalar ldMacTest.host[5].app 	appPkCount:count 	956546
attr interpolationmode  node
attr source  appPkCount
attr title  "appPkCount, count"
scalar ldMacTest.host[5].mac 	time10:count 	144
attr source  time10
attr title  "time10, count"
scalar ldMacTest.host[5].mac 	time9:count 	163
attr source  time9
attr title  "time9, count"
scalar ldMacTest.host[5].mac 	time8:count 	4515
attr source  time8
attr title  "time8, count"
scalar ldMacTest.host[5].mac 	time7:count 	27
attr source  time7
attr title  "time7, count"
scalar ldMacTest.host[5].mac 	time6:count 	37
attr source  time6
attr title  "time6, count"
scalar ldMacTest.host[5].mac 	time5:count 	82
attr source  time5
attr title  "time5, count"
scalar ldMacTest.host[5].mac 	time4:count 	0
attr source  time4
attr title  "time4, count"
scalar ldMacTest.host[5].mac 	time3:count 	0
attr source  time3
attr title  "time3, count"
scalar ldMacTest.host[5].mac 	time2:count 	0
attr source  time2
attr title  "time2, count"
scalar ldMacTest.host[5].mac 	time1:count 	0
attr source  time1
attr title  "time1, count"
scalar ldMacTest.host[5].mac 	time0:count 	4968
attr source  time0
attr title  "time0, count"
scalar ldMacTest.host[5].mac 	sentPkCount:count 	667795
attr interpolationmode  node
attr source  sentPkCount
attr title  "pkCount, count"
scalar ldMacTest.host[5].mac 	discardPkCount:count 	0
attr interpolationmode  node
attr source  discardPkCount
attr title  "discardPkCount, count"
scalar ldMacTest.host[5].mac 	queueTime:mean 	23.210832514794
attr source  queueTime
attr title  "queueTime, mean"
scalar ldMacTest.host[6].app 	errorCount:count 	0
attr interpolationmode  node
attr source  errorCount
attr title  "errorCount, count"
scalar ldMacTest.host[6].app 	appPkCount:count 	952901
attr interpolationmode  node
attr source  appPkCount
attr title  "appPkCount, count"
scalar ldMacTest.host[6].mac 	time10:count 	128
attr source  time10
attr title  "time10, count"
scalar ldMacTest.host[6].mac 	time9:count 	43
attr source  time9
attr title  "time9, count"
scalar ldMacTest.host[6].mac 	time8:count 	45
attr source  time8
attr title  "time8, count"
scalar ldMacTest.host[6].mac 	time7:count 	47
attr source  time7
attr title  "time7, count"
scalar ldMacTest.host[6].mac 	time6:count 	24
attr source  time6
attr title  "time6, count"
scalar ldMacTest.host[6].mac 	time5:count 	1000
attr source  time5
attr title  "time5, count"
scalar ldMacTest.host[6].mac 	time4:count 	2886
attr source  time4
attr title  "time4, count"
scalar ldMacTest.host[6].mac 	time3:count 	964
attr source  time3
attr title  "time3, count"
scalar ldMacTest.host[6].mac 	time2:count 	89
attr source  time2
attr title  "time2, count"
scalar ldMacTest.host[6].mac 	time1:count 	0
attr source  time1
attr title  "time1, count"
scalar ldMacTest.host[6].mac 	time0:count 	5226
attr source  time0
attr title  "time0, count"
scalar ldMacTest.host[6].mac 	sentPkCount:count 	779817
attr interpolationmode  node
attr source  sentPkCount
attr title  "pkCount, count"
scalar ldMacTest.host[6].mac 	discardPkCount:count 	0
attr interpolationmode  node
attr source  discardPkCount
attr title  "discardPkCount, count"
scalar ldMacTest.host[6].mac 	queueTime:mean 	34.583646660361
attr source  queueTime
attr title  "queueTime, mean"
scalar ldMacTest.host[7].app 	errorCount:count 	0
attr interpolationmode  node
attr source  errorCount
attr title  "errorCount, count"
scalar ldMacTest.host[7].app 	appPkCount:count 	946381
attr interpolationmode  node
attr source  appPkCount
attr title  "appPkCount, count"
scalar ldMacTest.host[7].mac 	time10:count 	182
attr source  time10
attr title  "time10, count"
scalar ldMacTest.host[7].mac 	time9:count 	54
attr source  time9
attr title  "time9, count"
scalar ldMacTest.host[7].mac 	time8:count 	295
attr source  time8
attr title  "time8, count"
scalar ldMacTest.host[7].mac 	time7:count 	118
attr source  time7
attr title  "time7, count"
scalar ldMacTest.host[7].mac 	time6:count 	47
attr source  time6
attr title  "time6, count"
scalar ldMacTest.host[7].mac 	time5:count 	280
attr source  time5
attr title  "time5, count"
scalar ldMacTest.host[7].mac 	time4:count 	817
attr source  time4
attr title  "time4, count"
scalar ldMacTest.host[7].mac 	time3:count 	3849
attr source  time3
attr title  "time3, count"
scalar ldMacTest.host[7].mac 	time2:count 	0
attr source  time2
attr title  "time2, count"
scalar ldMacTest.host[7].mac 	time1:count 	0
attr source  time1
attr title  "time1, count"
scalar ldMacTest.host[7].mac 	time0:count 	5642
attr source  time0
attr title  "time0, count"
scalar ldMacTest.host[7].mac 	sentPkCount:count 	881686
attr interpolationmode  node
attr source  sentPkCount
attr title  "pkCount, count"
scalar ldMacTest.host[7].mac 	discardPkCount:count 	12720
attr interpolationmode  node
attr source  discardPkCount
attr title  "discardPkCount, count"
scalar ldMacTest.host[7].mac 	queueTime:mean 	70.782001442255
attr source  queueTime
attr title  "queueTime, mean"
scalar ldMacTest.host[8].app 	errorCount:count 	0
attr interpolationmode  node
attr source  errorCount
attr title  "errorCount, count"
scalar ldMacTest.host[8].app 	appPkCount:count 	971550
attr interpolationmode  node
attr source  appPkCount
attr title  "appPkCount, count"
scalar ldMacTest.host[8].mac 	time10:count 	21
attr source  time10
attr title  "time10, count"
scalar ldMacTest.host[8].mac 	time9:count 	21
attr source  time9
attr title  "time9, count"
scalar ldMacTest.host[8].mac 	time8:count 	22
attr source  time8
attr title  "time8, count"
scalar ldMacTest.host[8].mac 	time7:count 	291
attr source  time7
attr title  "time7, count"
scalar ldMacTest.host[8].mac 	time6:count 	2825
attr source  time6
attr title  "time6, count"
scalar ldMacTest.host[8].mac 	time5:count 	1349
attr source  time5
attr title  "time5, count"
scalar ldMacTest.host[8].mac 	time4:count 	387
attr source  time4
attr title  "time4, count"
scalar ldMacTest.host[8].mac 	time3:count 	110
attr source  time3
attr title  "time3, count"
scalar ldMacTest.host[8].mac 	time2:count 	52
attr source  time2
attr title  "time2, count"
scalar ldMacTest.host[8].mac 	time1:count 	41
attr source  time1
attr title  "time1, count"
scalar ldMacTest.host[8].mac 	time0:count 	5119
attr source  time0
attr title  "time0, count"
scalar ldMacTest.host[8].mac 	sentPkCount:count 	845230
attr interpolationmode  node
attr source  sentPkCount
attr title  "pkCount, count"
scalar ldMacTest.host[8].mac 	discardPkCount:count 	9237
attr interpolationmode  node
attr source  discardPkCount
attr title  "discardPkCount, count"
scalar ldMacTest.host[8].mac 	queueTime:mean 	97.971862602419
attr source  queueTime
attr title  "queueTime, mean"
scalar ldMacTest.host[9].app 	errorCount:count 	0
attr interpolationmode  node
attr source  errorCount
attr title  "errorCount, count"
scalar ldMacTest.host[9].app 	appPkCount:count 	966776
attr interpolationmode  node
attr source  appPkCount
attr title  "appPkCount, count"
scalar ldMacTest.host[9].mac 	time10:count 	0
attr source  time10
attr title  "time10, count"
scalar ldMacTest.host[9].mac 	time9:count 	19
attr source  time9
attr title  "time9, count"
scalar ldMacTest.host[9].mac 	time8:count 	56
attr source  time8
attr title  "time8, count"
scalar ldMacTest.host[9].mac 	time7:count 	60
attr source  time7
attr title  "time7, count"
scalar ldMacTest.host[9].mac 	time6:count 	4572
attr source  time6
attr title  "time6, count"
scalar ldMacTest.host[9].mac 	time5:count 	37
attr source  time5
attr title  "time5, count"
scalar ldMacTest.host[9].mac 	time4:count 	48
attr source  time4
attr title  "time4, count"
scalar ldMacTest.host[9].mac 	time3:count 	50
attr source  time3
attr title  "time3, count"
scalar ldMacTest.host[9].mac 	time2:count 	65
attr source  time2
attr title  "time2, count"
scalar ldMacTest.host[9].mac 	time1:count 	22
attr source  time1
attr title  "time1, count"
scalar ldMacTest.host[9].mac 	time0:count 	4929
attr source  time0
attr title  "time0, count"
scalar ldMacTest.host[9].mac 	sentPkCount:count 	941856
attr interpolationmode  node
attr source  sentPkCount
attr title  "pkCount, count"
scalar ldMacTest.host[9].mac 	discardPkCount:count 	16396
attr interpolationmode  node
attr source  discardPkCount
attr title  "discardPkCount, count"
scalar ldMacTest.host[9].mac 	queueTime:mean 	87.41693246935
attr source  queueTime
attr title  "queueTime, mean"
scalar ldMacTest.host[10].app 	errorCount:count 	0
attr interpolationmode  node
attr source  errorCount
attr title  "errorCount, count"
scalar ldMacTest.host[10].app 	appPkCount:count 	944915
attr interpolationmode  node
attr source  appPkCount
attr title  "appPkCount, count"
scalar ldMacTest.host[10].mac 	time10:count 	1453
attr source  time10
attr title  "time10, count"
scalar ldMacTest.host[10].mac 	time9:count 	2519
attr source  time9
attr title  "time9, count"
scalar ldMacTest.host[10].mac 	time8:count 	543
attr source  time8
attr title  "time8, count"
scalar ldMacTest.host[10].mac 	time7:count 	54
attr source  time7
attr title  "time7, count"
scalar ldMacTest.host[10].mac 	time6:count 	49
attr source  time6
attr title  "time6, count"
scalar ldMacTest.host[10].mac 	time5:count 	56
attr source  time5
attr title  "time5, count"
scalar ldMacTest.host[10].mac 	time4:count 	86
attr source  time4
attr title  "time4, count"
scalar ldMacTest.host[10].mac 	time3:count 	0
attr source  time3
attr title  "time3, count"
scalar ldMacTest.host[10].mac 	time2:count 	0
attr source  time2
attr title  "time2, count"
scalar ldMacTest.host[10].mac 	time1:count 	0
attr source  time1
attr title  "time1, count"
scalar ldMacTest.host[10].mac 	time0:count 	4760
attr source  time0
attr title  "time0, count"
scalar ldMacTest.host[10].mac 	sentPkCount:count 	729919
attr interpolationmode  node
attr source  sentPkCount
attr title  "pkCount, count"
scalar ldMacTest.host[10].mac 	discardPkCount:count 	14332
attr interpolationmode  node
attr source  discardPkCount
attr title  "discardPkCount, count"
scalar ldMacTest.host[10].mac 	queueTime:mean 	90.215583909946
attr source  queueTime
attr title  "queueTime, mean"
scalar ldMacTest.host[11].app 	errorCount:count 	0
attr interpolationmode  node
attr source  errorCount
attr title  "errorCount, count"
scalar ldMacTest.host[11].app 	appPkCount:count 	962762
attr interpolationmode  node
attr source  appPkCount
attr title  "appPkCount, count"
scalar ldMacTest.host[11].mac 	time10:count 	189
attr source  time10
attr title  "time10, count"
scalar ldMacTest.host[11].mac 	time9:count 	3537
attr source  time9
attr title  "time9, count"
scalar ldMacTest.host[11].mac 	time8:count 	1431
attr source  time8
attr title  "time8, count"
scalar ldMacTest.host[11].mac 	time7:count 	94
attr source  time7
attr title  "time7, count"
scalar ldMacTest.host[11].mac 	time6:count 	41
attr source  time6
attr title  "time6, count"
scalar ldMacTest.host[11].mac 	time5:count 	40
attr source  time5
attr title  "time5, count"
scalar ldMacTest.host[11].mac 	time4:count 	44
attr source  time4
attr title  "time4, count"
scalar ldMacTest.host[11].mac 	time3:count 	60
attr source  time3
attr title  "time3, count"
scalar ldMacTest.host[11].mac 	time2:count 	82
attr source  time2
attr title  "time2, count"
scalar ldMacTest.host[11].mac 	time1:count 	42
attr source  time1
attr title  "time1, count"
scalar ldMacTest.host[11].mac 	time0:count 	5560
attr source  time0
attr title  "time0, count"
scalar ldMacTest.host[11].mac 	sentPkCount:count 	937371
attr interpolationmode  node
attr source  sentPkCount
attr title  "pkCount, count"
scalar ldMacTest.host[11].mac 	discardPkCount:count 	5469
attr interpolationmode  node
attr source  discardPkCount
attr title  "discardPkCount, count"
scalar ldMacTest.host[11].mac 	queueTime:mean 	76.842330629973
attr source  queueTime
attr title  "queueTime, mean"
scalar ldMacTest.host[12].app 	errorCount:count 	0
attr interpolationmode  node
attr source  errorCount
attr title  "errorCount, count"
scalar ldMacTest.host[12].app 	appPkCount:count 	981067
attr interpolationmode  node
attr source  appPkCount
attr title  "appPkCount, count"
scalar ldMacTest.host[12].mac 	time10:count 	209
attr source  time10
attr title  "time10, count"
scalar ldMacTest.host[12].mac 	time9:count 	22
attr source  time9
attr title  "time9, count"
scalar ldMacTest.host[12].mac 	time8:count 	22
attr source  time8
attr title  "time8, count"
scalar ldMacTest.host[12].mac 	time7:count 	22
attr source  time7
attr title  "time7, count"
scalar ldMacTest.host[12].mac 	time6:count 	23
attr source  time6
attr title  "time6, count"
scalar ldMacTest.host[12].mac 	time5:count 	24
attr source  time5
attr title  "time5, count"
scalar ldMacTest.host[12].mac 	time4:count 	2557
attr source  time4
attr title  "time4, count"
scalar ldMacTest.host[12].mac 	time3:count 	1739
attr source  time3
attr title  "time3, count"
scalar ldMacTest.host[12].mac 	time2:count 	0
attr source  time2
attr title  "time2, count"
scalar ldMacTest.host[12].mac 	time1:count 	0
attr source  time1
attr title  "time1, count"
scalar ldMacTest.host[12].mac 	time0:count 	4618
attr source  time0
attr title  "time0, count"
scalar ldMacTest.host[12].mac 	sentPkCount:count 	697670
attr interpolationmode  node
attr source  sentPkCount
attr title  "pkCount, count"
scalar ldMacTest.host[12].mac 	discardPkCount:count 	20446
attr interpolationmode  node
attr source  discardPkCount
attr title  "discardPkCount, count"
scalar ldMacTest.host[12].mac 	queueTime:mean 	69.723053335584
attr source  queueTime
attr title  "queueTime, mean"
scalar ldMacTest.host[13].app 	errorCount:count 	0
attr interpolationmode  node
attr source  errorCount
attr title  "errorCount, count"
scalar ldMacTest.host[13].app 	appPkCount:count 	932203
attr interpolationmode  node
attr source  appPkCount
attr title  "appPkCount, count"
scalar ldMacTest.host[13].mac 	time10:count 	0
attr source  time10
attr title  "time10, count"
scalar ldMacTest.host[13].mac 	time9:count 	17
attr source  time9
attr title  "time9, count"
scalar ldMacTest.host[13].mac 	time8:count 	220
attr source  time8
attr title  "time8, count"
scalar ldMacTest.host[13].mac 	time7:count 	252
attr source  time7
attr title  "time7, count"
scalar ldMacTest.host[13].mac 	time6:count 	127
attr source  time6
attr title  "time6, count"
scalar ldMacTest.host[13].mac 	time5:count 	23
attr source  time5
attr title  "time5, count"
scalar ldMacTest.host[13].mac 	time4:count 	24
attr source  time4
attr title  "time4, count"
scalar ldMacTest.host[13].mac 	time3:count 	2227
attr source  time3
attr title  "time3, count"
scalar ldMacTest.host[13].mac 	time2:count 	2686
attr source  time2
attr title  "time2, count"
scalar ldMacTest.host[13].mac 	time1:count 	0
attr source  time1
attr title  "time1, count"
scalar ldMacTest.host[13].mac 	time0:count 	5576
attr source  time0
attr title  "time0, count"
scalar ldMacTest.host[13].mac 	sentPkCount:count 	931374
attr interpolationmode  node
attr source  sentPkCount
attr title  "pkCount, count"
scalar ldMacTest.host[13].mac 	discardPkCount:count 	0
attr interpolationmode  node
attr source  discardPkCount
attr title  "discardPkCount, count"
scalar ldMacTest.host[13].mac 	queueTime:mean 	25.184485983113
attr source  queueTime
attr title  "queueTime, mean"
scalar ldMacTest.host[14].app 	errorCount:count 	0
attr interpolationmode  node
attr source  errorCount
attr title  "errorCount, count"
scalar ldMacTest.host[14].app 	appPkCount:count 	963538
attr interpolationmode  node
attr source  appPkCount
attr title  "appPkCount, count"
scalar ldMacTest.host[14].mac 	time10:count 	2749
attr source  time10
attr title  "time10, count"
scalar ldMacTest.host[14].mac 	time9:count 	1520
attr source  time9
attr title  "time9, count"
scalar ldMacTest.host[14].mac 	time8:count 	72
attr source  time8
attr title  "time8, count"
scalar ldMacTest.host[14].mac 	time7:count 	72
attr source  time7
attr title  "time7, count"
scalar ldMacTest.host[14].mac 	time6:count 	67
attr source  time6
attr title  "time6, count"
scalar ldMacTest.host[14].mac 	time5:count 	46
attr source  time5
attr title  "time5, count"
scalar ldMacTest.host[14].mac 	time4:count 	46
attr source  time4
attr title  "time4, count"
scalar ldMacTest.host[14].mac 	time3:count 	52
attr source  time3
attr title  "time3, count"
scalar ldMacTest.host[14].mac 	time2:count 	75
attr source  time2
attr title  "time2, count"
scalar ldMacTest.host[14].mac 	time1:count 	0
attr source  time1
attr title  "time1, count"
scalar ldMacTest.host[14].mac 	time0:count 	4699
attr source  time0
attr title  "time0, count"
scalar ldMacTest.host[14].mac 	sentPkCount:count 	944324
attr interpolationmode  node
attr source  sentPkCount
attr title  "pkCount, count"
scalar ldMacTest.host[14].mac 	discardPkCount:count 	3972
attr interpolationmode  node
attr source  discardPkCount
attr title  "discardPkCount, count"
scalar ldMacTest.host[14].mac 	queueTime:mean 	99.387551481436
attr source  queueTime
attr title  "queueTime, mean"
scalar ldMacTest.host[15].app 	errorCount:count 	0
attr interpolationmode  node
attr source  errorCount
attr title  "errorCount, count"
scalar ldMacTest.host[15].app 	appPkCount:count 	961479
attr interpolationmode  node
attr source  appPkCount
attr title  "appPkCount, count"
scalar ldMacTest.host[15].mac 	time10:count 	0
attr source  time10
attr title  "time10, count"
scalar ldMacTest.host[15].mac 	time9:count 	0
attr source  time9
attr title  "time9, count"
scalar ldMacTest.host[15].mac 	time8:count 	1132
attr source  time8
attr title  "time8, count"
scalar ldMacTest.host[15].mac 	time7:count 	3287
attr source  time7
attr title  "time7, count"
scalar ldMacTest.host[15].mac 	time6:count 	211
attr source  time6
attr title  "time6, count"
scalar ldMacTest.host[15].mac 	time5:count 	20
attr source  time5
attr title  "time5, count"
scalar ldMacTest.host[15].mac 	time4:count 	20
attr source  time4
attr title  "time4, count"
scalar ldMacTest.host[15].mac 	time3:count 	20
attr source  time3
attr title  "time3, count"
scalar ldMacTest.host[15].mac 	time2:count 	20
attr source  time2
attr title  "time2, count"
scalar ldMacTest.host[15].mac 	time1:count 	9
attr source  time1
attr title  "time1, count"
scalar ldMacTest.host[15].mac 	time0:count 	4719
attr source  time0
attr title  "time0, count"
scalar ldMacTest.host[15].mac 	sentPkCount:count 	932792
attr interpolationmode  node
attr source  sentPkCount
attr title  "pkCount, count"
scalar ldMacTest.host[15].mac 	discardPkCount:count 	11989
attr interpolationmode  node
attr source  discardPkCount
attr title  "discardPkCount, count"
scalar ldMacTest.host[15].mac 	queueTime:mean 	98.761760428914
attr source  queueTime
attr title  "queueTime, mean"
scalar ldMacTest.host[16].app 	errorCount:count 	0
attr interpolationmode  node
attr source  errorCount
attr title  "errorCount, count"
scalar ldMacTest.host[16].app 	appPkCount:count 	975914
attr interpolationmode  node
attr source  appPkCount
attr title  "appPkCount, count"
scalar ldMacTest.host[16].mac 	time10:count 	0
attr source  time10
attr title  "time10, count"
scalar ldMacTest.host[16].mac 	time9:count 	0
attr source  time9
attr title  "time9, count"
scalar ldMacTest.host[16].mac 	time8:count 	20
attr source  time8
attr title  "time8, count"
scalar ldMacTest.host[16].mac 	time7:count 	149
attr source  time7
attr title  "time7, count"
scalar ldMacTest.host[16].mac 	time6:count 	64
attr source  time6
attr title  "time6, count"
scalar ldMacTest.host[16].mac 	time5:count 	1412
attr source  time5
attr title  "time5, count"
scalar ldMacTest.host[16].mac 	time4:count 	2937
attr source  time4
attr title  "time4, count"
scalar ldMacTest.host[16].mac 	time3:count 	789
attr source  time3
attr title  "time3, count"
scalar ldMacTest.host[16].mac 	time2:count 	43
attr source  time2
attr title  "time2, count"
scalar ldMacTest.host[16].mac 	time1:count 	40
attr source  time1
attr title  "time1, count"
scalar ldMacTest.host[16].mac 	time0:count 	5454
attr source  time0
attr title  "time0, count"
scalar ldMacTest.host[16].mac 	sentPkCount:count 	948274
attr interpolationmode  node
attr source  sentPkCount
attr title  "pkCount, count"
scalar ldMacTest.host[16].mac 	discardPkCount:count 	19894
attr interpolationmode  node
attr source  discardPkCount
attr title  "discardPkCount, count"
scalar ldMacTest.host[16].mac 	queueTime:mean 	64.209208674801
attr source  queueTime
attr title  "queueTime, mean"
scalar ldMacTest.host[17].app 	errorCount:count 	0
attr interpolationmode  node
attr source  errorCount
attr title  "errorCount, count"
scalar ldMacTest.host[17].app 	appPkCount:count 	968707
attr interpolationmode  node
attr source  appPkCount
attr title  "appPkCount, count"
scalar ldMacTest.host[17].mac 	time10:count 	1029
attr source  time10
attr title  "time10, count"
scalar ldMacTest.host[17].mac 	time9:count 	54
attr source  time9
attr title  "time9, count"
scalar ldMacTest.host[17].mac 	time8:count 	62
attr source  time8
attr title  "time8, count"
scalar ldMacTest.host[17].mac 	time7:count 	47
attr source  time7
attr title  "time7, count"
scalar ldMacTest.host[17].mac 	time6:count 	47
attr source  time6
attr title  "time6, count"
scalar ldMacTest.host[17].mac 	time5:count 	51
attr source  time5
attr title  "time5, count"
scalar ldMacTest.host[17].mac 	time4:count 	58
attr source  time4
attr title  "time4, count"
scalar ldMacTest.host[17].mac 	time3:count 	84
attr source  time3
attr title  "time3, count"
scalar ldMacTest.host[17].mac 	time2:count 	0
attr source  time2
attr title  "time2, count"
scalar ldMacTest.host[17].mac 	time1:count 	0
attr source  time1
attr title  "time1, count"
scalar ldMacTest.host[17].mac 	time0:count 	1432
attr source  time0
attr title  "time0, count"
scalar ldMacTest.host[17].mac 	sentPkCount:count 	886475
attr interpolationmode  node
attr source  sentPkCount
attr title  "pkCount, count"
scalar ldMacTest.host[17].mac 	discardPkCount:count 	10484
attr interpolationmode  node
attr source  discardPkCount
attr title  "discardPkCount, count"
scalar ldMacTest.host[17].mac 	queueTime:mean 	105.92324528974
attr source  queueTime
attr title  "queueTime, mean"
scalar ldMacTest.host[18].app 	errorCount:count 	0
attr interpolationmode  node
attr source  errorCount
attr title  "errorCount, count"
scalar ldMacTest.host[18].app 	appPkCount:count 	934220
attr interpolationmode  node
attr source  appPkCount
attr title  "appPkCount, count"
scalar ldMacTest.host[18].mac 	time10:count 	39
attr source  time10
attr title  "time10, count"
scalar ldMacTest.host[18].mac 	time9:count 	45
attr source  time9
attr title  "time9, count"
scalar ldMacTest.host[18].mac 	time8:count 	45
attr source  time8
attr title  "time8, count"
scalar ldMacTest.host[18].mac 	time7:count 	46
attr source  time7
attr title  "time7, count"
scalar ldMacTest.host[18].mac 	time6:count 	46
attr source  time6
attr title  "time6, count"
scalar ldMacTest.host[18].mac 	time5:count 	170
attr source  time5
attr title  "time5, count"
scalar ldMacTest.host[18].mac 	time4:count 	3888
attr source  time4
attr title  "time4, count"
scalar ldMacTest.host[18].mac 	time3:count 	1641
attr source  time3
attr title  "time3, count"
scalar ldMacTest.host[18].mac 	time2:count 	12
attr source  time2
attr title  "time2, count"
scalar ldMacTest.host[18].mac 	time1:count 	0
attr source  time1
attr title  "time1, count"
scalar ldMacTest.host[18].mac 	time0:count 	5932
attr source  time0
attr title  "time0, count"
scalar ldMacTest.host[18].mac 	sentPkCount:count 	921782
attr interpolationmode  node
attr source  sentPkCount
attr title  "pkCount, count"
scalar ldMacTest.host[18].mac 	discardPkCount:count 	0
attr interpolationmode  node
attr source  discardPkCount
attr title  "discardPkCount, count"
scalar ldMacTest.host[18].mac 	queueTime:mean 	51.771133070295
attr source  queueTime
attr title  "queueTime, mean"
scalar ldMacTest.host[19].app 	errorCount:count 	0
attr interpolationmode  node
attr source  errorCount
attr title  "errorCount, count"
scalar ldMacTest.host[19].app 	appPkCount:count 	957634
attr interpolationmode  node
attr source  appPkCount
attr title  "appPkCount, count"
scalar ldMacTest.host[19].mac 	time10:count 	110
attr source  time10
attr title  "time10, count"
scalar ldMacTest.host[19].mac 	time9:count 	185
attr source  time9
attr title  "time9, count"
scalar ldMacTest.host[19].mac 	time8:count 	2257
attr source  time8
attr title  "time8, count"
scalar ldMacTest.host[19].mac 	time7:count 	2255
attr source  time7
attr title  "time7, count"
scalar ldMacTest.host[19].mac 	time6:count 	40
attr source  time6
attr title  "time6, count"
scalar ldMacTest.host[19].mac 	time5:count 	9
attr source  time5
attr title  "time5, count"
scalar ldMacTest.host[19].mac 	time4:count 	0
attr source  time4
attr title  "time4, count"
scalar ldMacTest.host[19].mac 	time3:count 	0
attr source  time3
attr title  "time3, count"
scalar ldMacTest.host[19].mac 	time2:count 	0
attr source  time2
attr title  "time2, count"
scalar ldMacTest.host[19].mac 	time1:count 	0
attr source  time1
attr title  "time1, count"
scalar ldMacTest.host[19].mac 	time0:count 	4856
attr source  time0
attr title  "time0, count"
scalar ldMacTest.host[19].mac 	sentPkCount:count 	883533
attr interpolationmode  node
attr source  sentPkCount
attr title  "pkCount, count"
scalar ldMacTest.host[19].mac 	discardPkCount:count 	12476
attr interpolationmode  node
attr source  discardPkCount
attr title  "discardPkCount, count"
scalar ldMacTest.host[19].mac 	queueTime:mean 	77.698431868775
attr source  queueTime
attr title  "queueTime, mean"
scalar ldMacTest.host[20].app 	errorCount:count 	0
attr interpolationmode  node
attr source  errorCount
attr title  "errorCount, count"
scalar ldMacTest.host[20].app 	appPkCount:count 	961443
attr interpolationmode  node
attr source  appPkCount
attr title  "appPkCount, count"
scalar ldMacTest.host[20].mac 	time10:count 	35
attr source  time10
attr title  "time10, count"
scalar ldMacTest.host[20].mac 	time9:count 	2818
attr source  time9
attr title  "time9, count"
scalar ldMacTest.host[20].mac 	time8:count 	1555
attr source  time8
attr title  "time8, count"
scalar ldMacTest.host[20].mac 	time7:count 	296
attr source  time7
attr title  "time7, count"
scalar ldMacTest.host[20].mac 	time6:count 	50
attr source  time6
attr title  "time6, count"
scalar ldMacTest.host[20].mac 	time5:count 	61
attr source  time5
attr title  "time5, count"
scalar ldMacTest.host[20].mac 	time4:count 	91
attr source  time4
attr title  "time4, count"
scalar ldMacTest.host[20].mac 	time3:count 	0
attr source  time3
attr title  "time3, count"
scalar ldMacTest.host[20].mac 	time2:count 	0
attr source  time2
attr title  "time2, count"
scalar ldMacTest.host[20].mac 	time1:count 	0
attr source  time1
attr title  "time1, count"
scalar ldMacTest.host[20].mac 	time0:count 	4906
attr source  time0
attr title  "time0, count"
scalar ldMacTest.host[20].mac 	sentPkCount:count 	937846
attr interpolationmode  node
attr source  sentPkCount
attr title  "pkCount, count"
scalar ldMacTest.host[20].mac 	discardPkCount:count 	8337
attr interpolationmode  node
attr source  discardPkCount
attr title  "discardPkCount, count"
scalar ldMacTest.host[20].mac 	queueTime:mean 	86.105922830277
attr source  queueTime
attr title  "queueTime, mean"
scalar ldMacTest.host[21].app 	errorCount:count 	0
attr interpolationmode  node
attr source  errorCount
attr title  "errorCount, count"
scalar ldMacTest.host[21].app 	appPkCount:count 	948223
attr interpolationmode  node
attr source  appPkCount
attr title  "appPkCount, count"
scalar ldMacTest.host[21].mac 	time10:count 	0
attr source  time10
attr title  "time10, count"
scalar ldMacTest.host[21].mac 	time9:count 	0
attr source  time9
attr title  "time9, count"
scalar ldMacTest.host[21].mac 	time8:count 	0
attr source  time8
attr title  "time8, count"
scalar ldMacTest.host[21].mac 	time7:count 	328
attr source  time7
attr title  "time7, count"
scalar ldMacTest.host[21].mac 	time6:count 	68
attr source  time6
attr title  "time6, count"
scalar ldMacTest.host[21].mac 	time5:count 	2725
attr source  time5
attr title  "time5, count"
scalar ldMacTest.host[21].mac 	time4:count 	2149
attr source  time4
attr title  "time4, count"
scalar ldMacTest.host[21].mac 	time3:count 	495
attr source  time3
attr title  "time3, count"
scalar ldMacTest.host[21].mac 	time2:count 	0
attr source  time2
attr title  "time2, count"
scalar ldMacTest.host[21].mac 	time1:count 	0
attr source  time1
attr title  "time1, count"
scalar ldMacTest.host[21].mac 	time0:count 	5765
attr source  time0
attr title  "time0, count"
scalar ldMacTest.host[21].mac 	sentPkCount:count 	942703
attr interpolationmode  node
attr source  sentPkCount
attr title  "pkCount, count"
scalar ldMacTest.host[21].mac 	discardPkCount:count 	0
attr interpolationmode  node
attr source  discardPkCount
attr title  "discardPkCount, count"
scalar ldMacTest.host[21].mac 	queueTime:mean 	24.710523773942
attr source  queueTime
attr title  "queueTime, mean"
scalar ldMacTest.host[22].app 	errorCount:count 	0
attr interpolationmode  node
attr source  errorCount
attr title  "errorCount, count"
scalar ldMacTest.host[22].app 	appPkCount:count 	974202
attr interpolationmode  node
attr source  appPkCount
attr title  "appPkCount, count"
scalar ldMacTest.host[22].mac 	time10:count 	270
attr source  time10
attr title  "time10, count"
scalar ldMacTest.host[22].mac 	time9:count 	46
attr source  time9
attr title  "time9, count"
scalar ldMacTest.host[22].mac 	time8:count 	388
attr source  time8
attr title  "time8, count"
scalar ldMacTest.host[22].mac 	time7:count 	2965
attr source  time7
attr title  "time7, count"
scalar ldMacTest.host[22].mac 	time6:count 	1368
attr source  time6
attr title  "time6, count"
scalar ldMacTest.host[22].mac 	time5:count 	276
attr source  time5
attr title  "time5, count"
scalar ldMacTest.host[22].mac 	time4:count 	68
attr source  time4
attr title  "time4, count"
scalar ldMacTest.host[22].mac 	time3:count 	60
attr source  time3
attr title  "time3, count"
scalar ldMacTest.host[22].mac 	time2:count 	0
attr source  time2
attr title  "time2, count"
scalar ldMacTest.host[22].mac 	time1:count 	0
attr source  time1
attr title  "time1, count"
scalar ldMacTest.host[22].mac 	time0:count 	5441
attr source  time0
attr title  "time0, count"
scalar ldMacTest.host[22].mac 	sentPkCount:count 	921878
attr interpolationmode  node
attr source  sentPkCount
attr title  "pkCount, count"
scalar ldMacTest.host[22].mac 	discardPkCount:count 	5754
attr interpolationmode  node
attr source  discardPkCount
attr title  "discardPkCount, count"
scalar ldMacTest.host[22].mac 	queueTime:mean 	69.943692414973
attr source  queueTime
attr title  "queueTime, mean"
scalar ldMacTest.host[23].app 	errorCount:count 	0
attr interpolationmode  node
attr source  errorCount
attr title  "errorCount, count"
scalar ldMacTest.host[23].app 	appPkCount:count 	942815
attr interpolationmode  node
attr source  appPkCount
attr title  "appPkCount, count"
scalar ldMacTest.host[23].mac 	time10:count 	0
attr source  time10
attr title  "time10, count"
scalar ldMacTest.host[23].mac 	time9:count 	15
attr source  time9
attr title  "time9, count"
scalar ldMacTest.host[23].mac 	time8:count 	46
attr source  time8
attr title  "time8, count"
scalar ldMacTest.host[23].mac 	time7:count 	48
attr source  time7
attr title  "time7, count"
scalar ldMacTest.host[23].mac 	time6:count 	49
attr source  time6
attr title  "time6, count"
scalar ldMacTest.host[23].mac 	time5:count 	247
attr source  time5
attr title  "time5, count"
scalar ldMacTest.host[23].mac 	time4:count 	894
attr source  time4
attr title  "time4, count"
scalar ldMacTest.host[23].mac 	time3:count 	4493
attr source  time3
attr title  "time3, count"
scalar ldMacTest.host[23].mac 	time2:count 	0
attr source  time2
attr title  "time2, count"
scalar ldMacTest.host[23].mac 	time1:count 	0
attr source  time1
attr title  "time1, count"
scalar ldMacTest.host[23].mac 	time0:count 	5792
attr source  time0
attr title  "time0, count"
scalar ldMacTest.host[23].mac 	sentPkCount:count 	927316
attr interpolationmode  node
attr source  sentPkCount
attr title  "pkCount, count"
scalar ldMacTest.host[23].mac 	discardPkCount:count 	10274
attr interpolationmode  node
attr source  discardPkCount
attr title  "discardPkCount, count"
scalar ldMacTest.host[23].mac 	queueTime:mean 	73.764319392414
attr source  queueTime
attr title  "queueTime, mean"
scalar ldMacTest.host[24].app 	errorCount:count 	0
attr interpolationmode  node
attr source  errorCount
attr title  "errorCount, count"
scalar ldMacTest.host[24].app 	appPkCount:count 	941180
attr interpolationmode  node
attr source  appPkCount
attr title  "appPkCount, count"
scalar ldMacTest.host[24].mac 	time10:count 	9
attr source  time10
attr title  "time10, count"
scalar ldMacTest.host[24].mac 	time9:count 	2667
attr source  time9
attr title  "time9, count"
scalar ldMacTest.host[24].mac 	time8:count 	2095
attr source  time8
attr title  "time8, count"
scalar ldMacTest.host[24].mac 	time7:count 	319
attr source  time7
attr title  "time7, count"
scalar ldMacTest.host[24].mac 	time6:count 	122
attr source  time6
attr title  "time6, count"
scalar ldMacTest.host[24].mac 	time5:count 	0
attr source  time5
attr title  "time5, count"
scalar ldMacTest.host[24].mac 	time4:count 	0
attr source  time4
attr title  "time4, count"
scalar ldMacTest.host[24].mac 	time3:count 	0
attr source  time3
attr title  "time3, count"
scalar ldMacTest.host[24].mac 	time2:count 	0
attr source  time2
attr title  "time2, count"
scalar ldMacTest.host[24].mac 	time1:count 	0
attr source  time1
attr title  "time1, count"
scalar ldMacTest.host[24].mac 	time0:count 	5212
attr source  time0
attr title  "time0, count"
scalar ldMacTest.host[24].mac 	sentPkCount:count 	918085
attr interpolationmode  node
attr source  sentPkCount
attr title  "pkCount, count"
scalar ldMacTest.host[24].mac 	discardPkCount:count 	10498
attr interpolationmode  node
attr source  discardPkCount
attr title  "discardPkCount, count"
scalar ldMacTest.host[24].mac 	queueTime:mean 	98.731955555337
attr source  queueTime
attr title  "queueTime, mean"
scalar ldMacTest.host[25].app 	errorCount:count 	0
attr interpolationmode  node
attr source  errorCount
attr title  "errorCount, count"
scalar ldMacTest.host[25].app 	appPkCount:count 	967844
attr interpolationmode  node
attr source  appPkCount
attr title  "appPkCount, count"
scalar ldMacTest.host[25].mac 	time10:count 	20
attr source  time10
attr title  "time10, count"
scalar ldMacTest.host[25].mac 	time9:count 	186
attr source  time9
attr title  "time9, count"
scalar ldMacTest.host[25].mac 	time8:count 	4687
attr source  time8
attr title  "time8, count"
scalar ldMacTest.host[25].mac 	time7:count 	0
attr source  time7
attr title  "time7, count"
scalar ldMacTest.host[25].mac 	time6:count 	0
attr source  time6
attr title  "time6, count"
scalar ldMacTest.host[25].mac 	time5:count 	0
attr source  time5
attr title  "time5, count"
scalar ldMacTest.host[25].mac 	time4:count 	0
attr source  time4
attr title  "time4, count"
scalar ldMacTest.host[25].mac 	time3:count 	0
attr source  time3
attr title  "time3, count"
scalar ldMacTest.host[25].mac 	time2:count 	0
attr source  time2
attr title  "time2, count"
scalar ldMacTest.host[25].mac 	time1:count 	0
attr source  time1
attr title  "time1, count"
scalar ldMacTest.host[25].mac 	time0:count 	4893
attr source  time0
attr title  "time0, count"
scalar ldMacTest.host[25].mac 	sentPkCount:count 	912776
attr interpolationmode  node
attr source  sentPkCount
attr title  "pkCount, count"
scalar ldMacTest.host[25].mac 	discardPkCount:count 	37256
attr interpolationmode  node
attr source  discardPkCount
attr title  "discardPkCount, count"
scalar ldMacTest.host[25].mac 	queueTime:mean 	109.90064543819
attr source  queueTime
attr title  "queueTime, mean"
scalar ldMacTest.host[26].app 	errorCount:count 	0
attr interpolationmode  node
attr source  errorCount
attr title  "errorCount, count"
scalar ldMacTest.host[26].app 	appPkCount:count 	947581
attr interpolationmode  node
attr source  appPkCount
attr title  "appPkCount, count"
scalar ldMacTest.host[26].mac 	time10:count 	2580
attr source  time10
attr title  "time10, count"
scalar ldMacTest.host[26].mac 	time9:count 	1981
attr source  time9
attr title  "time9, count"
scalar ldMacTest.host[26].mac 	time8:count 	241
attr source  time8
attr title  "time8, count"
scalar ldMacTest.host[26].mac 	time7:count 	22
attr source  time7
attr title  "time7, count"
scalar ldMacTest.host[26].mac 	time6:count 	21
attr source  time6
attr title  "time6, count"
scalar ldMacTest.host[26].mac 	time5:count 	22
attr source  time5
attr title  "time5, count"
scalar ldMacTest.host[26].mac 	time4:count 	33
attr source  time4
attr title  "time4, count"
scalar ldMacTest.host[26].mac 	time3:count 	362
attr source  time3
attr title  "time3, count"
scalar ldMacTest.host[26].mac 	time2:count 	214
attr source  time2
attr title  "time2, count"
scalar ldMacTest.host[26].mac 	time1:count 	156
attr source  time1
attr title  "time1, count"
scalar ldMacTest.host[26].mac 	time0:count 	5632
attr source  time0
attr title  "time0, count"
scalar ldMacTest.host[26].mac 	sentPkCount:count 	684802
attr interpolationmode  node
attr source  sentPkCount
attr title  "pkCount, count"
scalar ldMacTest.host[26].mac 	discardPkCount:count 	0
attr interpolationmode  node
attr source  discardPkCount
attr title  "discardPkCount, count"
scalar ldMacTest.host[26].mac 	queueTime:mean 	37.183490827445
attr source  queueTime
attr title  "queueTime, mean"
scalar ldMacTest.host[27].app 	errorCount:count 	0
attr interpolationmode  node
attr source  errorCount
attr title  "errorCount, count"
scalar ldMacTest.host[27].app 	appPkCount:count 	942795
attr interpolationmode  node
attr source  appPkCount
attr title  "appPkCount, count"
scalar ldMacTest.host[27].mac 	time10:count 	576
attr source  time10
attr title  "time10, count"
scalar ldMacTest.host[27].mac 	time9:count 	62
attr source  time9
attr title  "time9, count"
scalar ldMacTest.host[27].mac 	time8:count 	98
attr source  time8
attr title  "time8, count"
scalar ldMacTest.host[27].mac 	time7:count 	58
attr source  time7
attr title  "time7, count"
scalar ldMacTest.host[27].mac 	time6:count 	47
attr source  time6
attr title  "time6, count"
scalar ldMacTest.host[27].mac 	time5:count 	54
attr source  time5
attr title  "time5, count"
scalar ldMacTest.host[27].mac 	time4:count 	104
attr source  time4
attr title  "time4, count"
scalar ldMacTest.host[27].mac 	time3:count 	0
attr source  time3
attr title  "time3, count"
scalar ldMacTest.host[27].mac 	time2:count 	0
attr source  time2
attr title  "time2, count"
scalar ldMacTest.host[27].mac 	time1:count 	0
attr source  time1
attr title  "time1, count"
scalar ldMacTest.host[27].mac 	time0:count 	999
attr source  time0
attr title  "time0, count"
scalar ldMacTest.host[27].mac 	sentPkCount:count 	861756
attr interpolationmode  node
attr source  sentPkCount
attr title  "pkCount, count"
scalar ldMacTest.host[27].mac 	discardPkCount:count 	0
attr interpolationmode  node
attr source  discardPkCount
attr title  "discardPkCount, count"
scalar ldMacTest.host[27].mac 	queueTime:mean 	73.455486920404
attr source  queueTime
attr title  "queueTime, mean"
scalar ldMacTest.host[28].app 	errorCount:count 	0
attr interpolationmode  node
attr source  errorCount
attr title  "errorCount, count"
scalar ldMacTest.host[28].app 	appPkCount:count 	949185
attr interpolationmode  node
attr source  appPkCount
attr title  "appPkCount, count"
scalar ldMacTest.host[28].mac 	time10:count 	291
attr source  time10
attr title  "time10, count"
scalar ldMacTest.host[28].mac 	time9:count 	21
attr source  time9
attr title  "time9, count"
scalar ldMacTest.host[28].mac 	time8:count 	21
attr source  time8
attr title  "time8, count"
scalar ldMacTest.host[28].mac 	time7:count 	22
attr source  time7
attr title  "time7, count"
scalar ldMacTest.host[28].mac 	time6:count 	22
attr source  time6
attr title  "time6, count"
scalar ldMacTest.host[28].mac 	time5:count 	23
attr source  time5
attr title  "time5, count"
scalar ldMacTest.host[28].mac 	time4:count 	24
attr source  time4
attr title  "time4, count"
scalar ldMacTest.host[28].mac 	time3:count 	24
attr source  time3
attr title  "time3, count"
scalar ldMacTest.host[28].mac 	time2:count 	44
attr source  time2
attr title  "time2, count"
scalar ldMacTest.host[28].mac 	time1:count 	30
attr source  time1
attr title  "time1, count"
scalar ldMacTest.host[28].mac 	time0:count 	522
attr source  time0
attr title  "time0, count"
scalar ldMacTest.host[28].mac 	sentPkCount:count 	791258
attr interpolationmode  node
attr source  sentPkCount
attr title  "pkCount, count"
scalar ldMacTest.host[28].mac 	discardPkCount:count 	4182
attr interpolationmode  node
attr source  discardPkCount
attr title  "discardPkCount, count"
scalar ldMacTest.host[28].mac 	queueTime:mean 	94.395517656355
attr source  queueTime
attr title  "queueTime, mean"
scalar ldMacTest.host[29].app 	errorCount:count 	0
attr interpolationmode  node
attr source  errorCount
attr title  "errorCount, count"
scalar ldMacTest.host[29].app 	appPkCount:count 	943186
attr interpolationmode  node
attr source  appPkCount
attr title  "appPkCount, count"
scalar ldMacTest.host[29].mac 	time10:count 	86
attr source  time10
attr title  "time10, count"
scalar ldMacTest.host[29].mac 	time9:count 	52
attr source  time9
attr title  "time9, count"
scalar ldMacTest.host[29].mac 	time8:count 	130
attr source  time8
attr title  "time8, count"
scalar ldMacTest.host[29].mac 	time7:count 	1512
attr source  time7
attr title  "time7, count"
scalar ldMacTest.host[29].mac 	time6:count 	2535
attr source  time6
attr title  "time6, count"
scalar ldMacTest.host[29].mac 	time5:count 	768
attr source  time5
attr title  "time5, count"
scalar ldMacTest.host[29].mac 	time4:count 	213
attr source  time4
attr title  "time4, count"
scalar ldMacTest.host[29].mac 	time3:count 	393
attr source  time3
attr title  "time3, count"
scalar ldMacTest.host[29].mac 	time2:count 	457
attr source  time2
attr title  "time2, count"
scalar ldMacTest.host[29].mac 	time1:count 	93
attr source  time1
attr title  "time1, count"
scalar ldMacTest.host[29].mac 	time0:count 	6239
attr source  time0
attr title  "time0, count"
scalar ldMacTest.host[29].mac 	sentPkCount:count 	928392
attr interpolationmode  node
attr source  sentPkCount
attr title  "pkCount, count"
scalar ldMacTest.host[29].mac 	discardPkCount:count 	0
attr interpolationmode  node
attr source  discardPkCount
attr title  "discardPkCount, count"
scalar ldMacTest.host[29].mac 	queueTime:mean 	22.724856756503
attr source  queueTime
attr title  "queueTime, mean"
scalar ldMacTest.host[30].app 	errorCount:count 	0
attr interpolationmode  node
attr source  errorCount
attr title  "errorCount, count"
scalar ldMacTest.host[30].app 	appPkCount:count 	934576
attr interpolationmode  node
attr source  appPkCount
attr title  "appPkCount, count"
scalar ldMacTest.host[30].mac 	time10:count 	202
attr source  time10
attr title  "time10, count"
scalar ldMacTest.host[30].mac 	time9:count 	48
attr source  time9
attr title  "time9, count"
scalar ldMacTest.host[30].mac 	time8:count 	68
attr source  time8
attr title  "time8, count"
scalar ldMacTest.host[30].mac 	time7:count 	241
attr source  time7
attr title  "time7, count"
scalar ldMacTest.host[30].mac 	time6:count 	157
attr source  time6
attr title  "time6, count"
scalar ldMacTest.host[30].mac 	time5:count 	280
attr source  time5
attr title  "time5, count"
scalar ldMacTest.host[30].mac 	time4:count 	2523
attr source  time4
attr title  "time4, count"
scalar ldMacTest.host[30].mac 	time3:count 	2405
attr source  time3
attr title  "time3, count"
scalar ldMacTest.host[30].mac 	time2:count 	0
attr source  time2
attr title  "time2, count"
scalar ldMacTest.host[30].mac 	time1:count 	0
attr source  time1
attr title  "time1, count"
scalar ldMacTest.host[30].mac 	time0:count 	5924
attr source  time0
attr title  "time0, count"
scalar ldMacTest.host[30].mac 	sentPkCount:count 	911916
attr interpolationmode  node
attr source  sentPkCount
attr title  "pkCount, count"
scalar ldMacTest.host[30].mac 	discardPkCount:count 	0
attr interpolationmode  node
attr source  discardPkCount
attr title  "discardPkCount, count"
scalar ldMacTest.host[30].mac 	queueTime:mean 	25.412661439543
attr source  queueTime
attr title  "queueTime, mean"
scalar ldMacTest.host[31].app 	errorCount:count 	0
attr interpolationmode  node
attr source  errorCount
attr title  "errorCount, count"
scalar ldMacTest.host[31].app 	appPkCount:count 	961164
attr interpolationmode  node
attr source  appPkCount
attr title  "appPkCount, count"
scalar ldMacTest.host[31].mac 	time10:count 	19
attr source  time10
attr title  "time10, count"
scalar ldMacTest.host[31].mac 	time9:count 	173
attr source  time9
attr title  "time9, count"
scalar ldMacTest.host[31].mac 	time8:count 	3047
attr source  time8
attr title  "time8, count"
scalar ldMacTest.host[31].mac 	time7:count 	1611
attr source  time7
attr title  "time7, count"
scalar ldMacTest.host[31].mac 	time6:count 	58
attr source  time6
attr title  "time6, count"
scalar ldMacTest.host[31].mac 	time5:count 	52
attr source  time5
attr title  "time5, count"
scalar ldMacTest.host[31].mac 	time4:count 	61
attr source  time4
attr title  "time4, count"
scalar ldMacTest.host[31].mac 	time3:count 	86
attr source  time3
attr title  "time3, count"
scalar ldMacTest.host[31].mac 	time2:count 	0
attr source  time2
attr title  "time2, count"
scalar ldMacTest.host[31].mac 	time1:count 	0
attr source  time1
attr title  "time1, count"
scalar ldMacTest.host[31].mac 	time0:count 	5107
attr source  time0
attr title  "time0, count"
scalar ldMacTest.host[31].mac 	sentPkCount:count 	940007
attr interpolationmode  node
attr source  sentPkCount
attr title  "pkCount, count"
scalar ldMacTest.host[31].mac 	discardPkCount:count 	7247
attr interpolationmode  node
attr source  discardPkCount
attr title  "discardPkCount, count"
scalar ldMacTest.host[31].mac 	queueTime:mean 	81.839494507159
attr source  queueTime
attr title  "queueTime, mean"
scalar ldMacTest.host[32].app 	errorCount:count 	0
attr interpolationmode  node
attr source  errorCount
attr title  "errorCount, count"
scalar ldMacTest.host[32].app 	appPkCount:count 	939999
attr interpolationmode  node
attr source  appPkCount
attr title  "appPkCount, count"
scalar ldMacTest.host[32].mac 	time10:count 	315
attr source  time10
attr title  "time10, count"
scalar ldMacTest.host[32].mac 	time9:count 	20
attr source  time9
attr title  "time9, count"
scalar ldMacTest.host[32].mac 	time8:count 	19
attr source  time8
attr title  "time8, count"
scalar ldMacTest.host[32].mac 	time7:count 	19
attr source  time7
attr title  "time7, count"
scalar ldMacTest.host[32].mac 	time6:count 	220
attr source  time6
attr title  "time6, count"
scalar ldMacTest.host[32].mac 	time5:count 	914
attr source  time5
attr title  "time5, count"
scalar ldMacTest.host[32].mac 	time4:count 	43
attr source  time4
attr title  "time4, count"
scalar ldMacTest.host[32].mac 	time3:count 	44
attr source  time3
attr title  "time3, count"
scalar ldMacTest.host[32].mac 	time2:count 	44
attr source  time2
attr title  "time2, count"
scalar ldMacTest.host[32].mac 	time1:count 	41
attr source  time1
attr title  "time1, count"
scalar ldMacTest.host[32].mac 	time0:count 	1679
attr source  time0
attr title  "time0, count"
scalar ldMacTest.host[32].mac 	sentPkCount:count 	852732
attr interpolationmode  node
attr source  sentPkCount
attr title  "pkCount, count"
scalar ldMacTest.host[32].mac 	discardPkCount:count 	6934
attr interpolationmode  node
attr source  discardPkCount
attr title  "discardPkCount, count"
scalar ldMacTest.host[32].mac 	queueTime:mean 	76.517822367049
attr source  queueTime
attr title  "queueTime, mean"
scalar ldMacTest.host[33].app 	errorCount:count 	0
attr interpolationmode  node
attr source  errorCount
attr title  "errorCount, count"
scalar ldMacTest.host[33].app 	appPkCount:count 	954206
attr interpolationmode  node
attr source  appPkCount
attr title  "appPkCount, count"
scalar ldMacTest.host[33].mac 	time10:count 	0
attr source  time10
attr title  "time10, count"
scalar ldMacTest.host[33].mac 	time9:count 	0
attr source  time9
attr title  "time9, count"
scalar ldMacTest.host[33].mac 	time8:count 	0
attr source  time8
attr title  "time8, count"
scalar ldMacTest.host[33].mac 	time7:count 	79
attr source  time7
attr title  "time7, count"
scalar ldMacTest.host[33].mac 	time6:count 	168
attr source  time6
attr title  "time6, count"
scalar ldMacTest.host[33].mac 	time5:count 	44
attr source  time5
attr title  "time5, count"
scalar ldMacTest.host[33].mac 	time4:count 	2109
attr source  time4
attr title  "time4, count"
scalar ldMacTest.host[33].mac 	time3:count 	2491
attr source  time3
attr title  "time3, count"
scalar ldMacTest.host[33].mac 	time2:count 	275
attr source  time2
attr title  "time2, count"
scalar ldMacTest.host[33].mac 	time1:count 	0
attr source  time1
attr title  "time1, count"
scalar ldMacTest.host[33].mac 	time0:count 	5166
attr source  time0
attr title  "time0, count"
scalar ldMacTest.host[33].mac 	sentPkCount:count 	938620
attr interpolationmode  node
attr source  sentPkCount
attr title  "pkCount, count"
scalar ldMacTest.host[33].mac 	discardPkCount:count 	0
attr interpolationmode  node
attr source  discardPkCount
attr title  "discardPkCount, count"
scalar ldMacTest.host[33].mac 	queueTime:mean 	60.913819872274
attr source  queueTime
attr title  "queueTime, mean"
scalar ldMacTest.host[34].app 	errorCount:count 	0
attr interpolationmode  node
attr source  errorCount
attr title  "errorCount, count"
scalar ldMacTest.host[34].app 	appPkCount:count 	934479
attr interpolationmode  node
attr source  appPkCount
attr title  "appPkCount, count"
scalar ldMacTest.host[34].mac 	time10:count 	18
attr source  time10
attr title  "time10, count"
scalar ldMacTest.host[34].mac 	time9:count 	119
attr source  time9
attr title  "time9, count"
scalar ldMacTest.host[34].mac 	time8:count 	61
attr source  time8
attr title  "time8, count"
scalar ldMacTest.host[34].mac 	time7:count 	208
attr source  time7
attr title  "time7, count"
scalar ldMacTest.host[34].mac 	time6:count 	3706
attr source  time6
attr title  "time6, count"
scalar ldMacTest.host[34].mac 	time5:count 	650
attr source  time5
attr title  "time5, count"
scalar ldMacTest.host[34].mac 	time4:count 	241
attr source  time4
attr title  "time4, count"
scalar ldMacTest.host[34].mac 	time3:count 	0
attr source  time3
attr title  "time3, count"
scalar ldMacTest.host[34].mac 	time2:count 	0
attr source  time2
attr title  "time2, count"
scalar ldMacTest.host[34].mac 	time1:count 	0
attr source  time1
attr title  "time1, count"
scalar ldMacTest.host[34].mac 	time0:count 	5003
attr source  time0
attr title  "time0, count"
scalar ldMacTest.host[34].mac 	sentPkCount:count 	928080
attr interpolationmode  node
attr source  sentPkCount
attr title  "pkCount, count"
scalar ldMacTest.host[34].mac 	discardPkCount:count 	110
attr interpolationmode  node
attr source  discardPkCount
attr title  "discardPkCount, count"
scalar ldMacTest.host[34].mac 	queueTime:mean 	62.413144085239
attr source  queueTime
attr title  "queueTime, mean"
scalar ldMacTest.host[35].app 	errorCount:count 	0
attr interpolationmode  node
attr source  errorCount
attr title  "errorCount, count"
scalar ldMacTest.host[35].app 	appPkCount:count 	939250
attr interpolationmode  node
attr source  appPkCount
attr title  "appPkCount, count"
scalar ldMacTest.host[35].mac 	time10:count 	131
attr source  time10
attr title  "time10, count"
scalar ldMacTest.host[35].mac 	time9:count 	30
attr source  time9
attr title  "time9, count"
scalar ldMacTest.host[35].mac 	time8:count 	249
attr source  time8
attr title  "time8, count"
scalar ldMacTest.host[35].mac 	time7:count 	43
attr source  time7
attr title  "time7, count"
scalar ldMacTest.host[35].mac 	time6:count 	44
attr source  time6
attr title  "time6, count"
scalar ldMacTest.host[35].mac 	time5:count 	48
attr source  time5
attr title  "time5, count"
scalar ldMacTest.host[35].mac 	time4:count 	126
attr source  time4
attr title  "time4, count"
scalar ldMacTest.host[35].mac 	time3:count 	152
attr source  time3
attr title  "time3, count"
scalar ldMacTest.host[35].mac 	time2:count 	0
attr source  time2
attr title  "time2, count"
scalar ldMacTest.host[35].mac 	time1:count 	0
attr source  time1
attr title  "time1, count"
scalar ldMacTest.host[35].mac 	time0:count 	823
attr source  time0
attr title  "time0, count"
scalar ldMacTest.host[35].mac 	sentPkCount:count 	782079
attr interpolationmode  node
attr source  sentPkCount
attr title  "pkCount, count"
scalar ldMacTest.host[35].mac 	discardPkCount:count 	0
attr interpolationmode  node
attr source  discardPkCount
attr title  "discardPkCount, count"
scalar ldMacTest.host[35].mac 	queueTime:mean 	42.129761762879
attr source  queueTime
attr title  "queueTime, mean"
scalar ldMacTest.host[36].app 	errorCount:count 	0
attr interpolationmode  node
attr source  errorCount
attr title  "errorCount, count"
scalar ldMacTest.host[36].app 	appPkCount:count 	960444
attr interpolationmode  node
attr source  appPkCount
attr title  "appPkCount, count"
scalar ldMacTest.host[36].mac 	time10:count 	4374
attr source  time10
attr title  "time10, count"
scalar ldMacTest.host[36].mac 	time9:count 	40
attr source  time9
attr title  "time9, count"
scalar ldMacTest.host[36].mac 	time8:count 	26
attr source  time8
attr title  "time8, count"
scalar ldMacTest.host[36].mac 	time7:count 	27
attr source  time7
attr title  "time7, count"
scalar ldMacTest.host[36].mac 	time6:count 	34
attr source  time6
attr title  "time6, count"
scalar ldMacTest.host[36].mac 	time5:count 	70
attr source  time5
attr title  "time5, count"
scalar ldMacTest.host[36].mac 	time4:count 	115
attr source  time4
attr title  "time4, count"
scalar ldMacTest.host[36].mac 	time3:count 	0
attr source  time3
attr title  "time3, count"
scalar ldMacTest.host[36].mac 	time2:count 	0
attr source  time2
attr title  "time2, count"
scalar ldMacTest.host[36].mac 	time1:count 	0
attr source  time1
attr title  "time1, count"
scalar ldMacTest.host[36].mac 	time0:count 	4686
attr source  time0
attr title  "time0, count"
scalar ldMacTest.host[36].mac 	sentPkCount:count 	934188
attr interpolationmode  node
attr source  sentPkCount
attr title  "pkCount, count"
scalar ldMacTest.host[36].mac 	discardPkCount:count 	8529
attr interpolationmode  node
attr source  discardPkCount
attr title  "discardPkCount, count"
scalar ldMacTest.host[36].mac 	queueTime:mean 	106.58199153887
attr source  queueTime
attr title  "queueTime, mean"
scalar ldMacTest.host[37].app 	errorCount:count 	0
attr interpolationmode  node
attr source  errorCount
attr title  "errorCount, count"
scalar ldMacTest.host[37].app 	appPkCount:count 	950655
attr interpolationmode  node
attr source  appPkCount
attr title  "appPkCount, count"
scalar ldMacTest.host[37].mac 	time10:count 	719
attr source  time10
attr title  "time10, count"
scalar ldMacTest.host[37].mac 	time9:count 	20
attr source  time9
attr title  "time9, count"
scalar ldMacTest.host[37].mac 	time8:count 	46
attr source  time8
attr title  "time8, count"
scalar ldMacTest.host[37].mac 	time7:count 	74
attr source  time7
attr title  "time7, count"
scalar ldMacTest.host[37].mac 	time6:count 	66
attr source  time6
attr title  "time6, count"
scalar ldMacTest.host[37].mac 	time5:count 	55
attr source  time5
attr title  "time5, count"
scalar ldMacTest.host[37].mac 	time4:count 	43
attr source  time4
attr title  "time4, count"
scalar ldMacTest.host[37].mac 	time3:count 	43
attr source  time3
attr title  "time3, count"
scalar ldMacTest.host[37].mac 	time2:count 	47
attr source  time2
attr title  "time2, count"
scalar ldMacTest.host[37].mac 	time1:count 	37
attr source  time1
attr title  "time1, count"
scalar ldMacTest.host[37].mac 	time0:count 	1150
attr source  time0
attr title  "time0, count"
scalar ldMacTest.host[37].mac 	sentPkCount:count 	881880
attr interpolationmode  node
attr source  sentPkCount
attr title  "pkCount, count"
scalar ldMacTest.host[37].mac 	discardPkCount:count 	2049
attr interpolationmode  node
attr source  discardPkCount
attr title  "discardPkCount, count"
scalar ldMacTest.host[37].mac 	queueTime:mean 	60.755652678533
attr source  queueTime
attr title  "queueTime, mean"
scalar ldMacTest.host[38].app 	errorCount:count 	0
attr interpolationmode  node
attr source  errorCount
attr title  "errorCount, count"
scalar ldMacTest.host[38].app 	appPkCount:count 	975952
attr interpolationmode  node
attr source  appPkCount
attr title  "appPkCount, count"
scalar ldMacTest.host[38].mac 	time10:count 	0
attr source  time10
attr title  "time10, count"
scalar ldMacTest.host[38].mac 	time9:count 	78
attr source  time9
attr title  "time9, count"
scalar ldMacTest.host[38].mac 	time8:count 	590
attr source  time8
attr title  "time8, count"
scalar ldMacTest.host[38].mac 	time7:count 	3364
attr source  time7
attr title  "time7, count"
scalar ldMacTest.host[38].mac 	time6:count 	716
attr source  time6
attr title  "time6, count"
scalar ldMacTest.host[38].mac 	time5:count 	61
attr source  time5
attr title  "time5, count"
scalar ldMacTest.host[38].mac 	time4:count 	101
attr source  time4
attr title  "time4, count"
scalar ldMacTest.host[38].mac 	time3:count 	0
attr source  time3
attr title  "time3, count"
scalar ldMacTest.host[38].mac 	time2:count 	0
attr source  time2
attr title  "time2, count"
scalar ldMacTest.host[38].mac 	time1:count 	0
attr source  time1
attr title  "time1, count"
scalar ldMacTest.host[38].mac 	time0:count 	4910
attr source  time0
attr title  "time0, count"
scalar ldMacTest.host[38].mac 	sentPkCount:count 	931827
attr interpolationmode  node
attr source  sentPkCount
attr title  "pkCount, count"
scalar ldMacTest.host[38].mac 	discardPkCount:count 	24637
attr interpolationmode  node
attr source  discardPkCount
attr title  "discardPkCount, count"
scalar ldMacTest.host[38].mac 	queueTime:mean 	100.50854724611
attr source  queueTime
attr title  "queueTime, mean"
scalar ldMacTest.host[39].app 	errorCount:count 	0
attr interpolationmode  node
attr source  errorCount
attr title  "errorCount, count"
scalar ldMacTest.host[39].app 	appPkCount:count 	970971
attr interpolationmode  node
attr source  appPkCount
attr title  "appPkCount, count"
scalar ldMacTest.host[39].mac 	time10:count 	28
attr source  time10
attr title  "time10, count"
scalar ldMacTest.host[39].mac 	time9:count 	40
attr source  time9
attr title  "time9, count"
scalar ldMacTest.host[39].mac 	time8:count 	41
attr source  time8
attr title  "time8, count"
scalar ldMacTest.host[39].mac 	time7:count 	39
attr source  time7
attr title  "time7, count"
scalar ldMacTest.host[39].mac 	time6:count 	40
attr source  time6
attr title  "time6, count"
scalar ldMacTest.host[39].mac 	time5:count 	40
attr source  time5
attr title  "time5, count"
scalar ldMacTest.host[39].mac 	time4:count 	52
attr source  time4
attr title  "time4, count"
scalar ldMacTest.host[39].mac 	time3:count 	457
attr source  time3
attr title  "time3, count"
scalar ldMacTest.host[39].mac 	time2:count 	2440
attr source  time2
attr title  "time2, count"
scalar ldMacTest.host[39].mac 	time1:count 	2072
attr source  time1
attr title  "time1, count"
scalar ldMacTest.host[39].mac 	time0:count 	5249
attr source  time0
attr title  "time0, count"
scalar ldMacTest.host[39].mac 	sentPkCount:count 	941426
attr interpolationmode  node
attr source  sentPkCount
attr title  "pkCount, count"
scalar ldMacTest.host[39].mac 	discardPkCount:count 	17149
attr interpolationmode  node
attr source  discardPkCount
attr title  "discardPkCount, count"
scalar ldMacTest.host[39].mac 	queueTime:mean 	89.267289616081
attr source  queueTime
attr title  "queueTime, mean"
scalar ldMacTest.host[40].app 	errorCount:count 	0
attr interpolationmode  node
attr source  errorCount
attr title  "errorCount, count"
scalar ldMacTest.host[40].app 	appPkCount:count 	950036
attr interpolationmode  node
attr source  appPkCount
attr title  "appPkCount, count"
scalar ldMacTest.host[40].mac 	time10:count 	36
attr source  time10
attr title  "time10, count"
scalar ldMacTest.host[40].mac 	time9:count 	26
attr source  time9
attr title  "time9, count"
scalar ldMacTest.host[40].mac 	time8:count 	47
attr source  time8
attr title  "time8, count"
scalar ldMacTest.host[40].mac 	time7:count 	57
attr source  time7
attr title  "time7, count"
scalar ldMacTest.host[40].mac 	time6:count 	75
attr source  time6
attr title  "time6, count"
scalar ldMacTest.host[40].mac 	time5:count 	69
attr source  time5
attr title  "time5, count"
scalar ldMacTest.host[40].mac 	time4:count 	85
attr source  time4
attr title  "time4, count"
scalar ldMacTest.host[40].mac 	time3:count 	36
attr source  time3
attr title  "time3, count"
scalar ldMacTest.host[40].mac 	time2:count 	0
attr source  time2
attr title  "time2, count"
scalar ldMacTest.host[40].mac 	time1:count 	0
attr source  time1
attr title  "time1, count"
scalar ldMacTest.host[40].mac 	time0:count 	431
attr source  time0
attr title  "time0, count"
scalar ldMacTest.host[40].mac 	sentPkCount:count 	841072
attr interpolationmode  node
attr source  sentPkCount
attr title  "pkCount, count"
scalar ldMacTest.host[40].mac 	discardPkCount:count 	8888
attr interpolationmode  node
attr source  discardPkCount
attr title  "discardPkCount, count"
scalar ldMacTest.host[40].mac 	queueTime:mean 	89.841225283908
attr source  queueTime
attr title  "queueTime, mean"
scalar ldMacTest.host[41].app 	errorCount:count 	0
attr interpolationmode  node
attr source  errorCount
attr title  "errorCount, count"
scalar ldMacTest.host[41].app 	appPkCount:count 	957037
attr interpolationmode  node
attr source  appPkCount
attr title  "appPkCount, count"
scalar ldMacTest.host[41].mac 	time10:count 	104
attr source  time10
attr title  "time10, count"
scalar ldMacTest.host[41].mac 	time9:count 	40
attr source  time9
attr title  "time9, count"
scalar ldMacTest.host[41].mac 	time8:count 	39
attr source  time8
attr title  "time8, count"
scalar ldMacTest.host[41].mac 	time7:count 	46
attr source  time7
attr title  "time7, count"
scalar ldMacTest.host[41].mac 	time6:count 	39
attr source  time6
attr title  "time6, count"
scalar ldMacTest.host[41].mac 	time5:count 	41
attr source  time5
attr title  "time5, count"
scalar ldMacTest.host[41].mac 	time4:count 	131
attr source  time4
attr title  "time4, count"
scalar ldMacTest.host[41].mac 	time3:count 	1330
attr source  time3
attr title  "time3, count"
scalar ldMacTest.host[41].mac 	time2:count 	3280
attr source  time2
attr title  "time2, count"
scalar ldMacTest.host[41].mac 	time1:count 	0
attr source  time1
attr title  "time1, count"
scalar ldMacTest.host[41].mac 	time0:count 	5050
attr source  time0
attr title  "time0, count"
scalar ldMacTest.host[41].mac 	sentPkCount:count 	699721
attr interpolationmode  node
attr source  sentPkCount
attr title  "pkCount, count"
scalar ldMacTest.host[41].mac 	discardPkCount:count 	11004
attr interpolationmode  node
attr source  discardPkCount
attr title  "discardPkCount, count"
scalar ldMacTest.host[41].mac 	queueTime:mean 	61.144461094143
attr source  queueTime
attr title  "queueTime, mean"
scalar ldMacTest.host[42].app 	errorCount:count 	0
attr interpolationmode  node
attr source  errorCount
attr title  "errorCount, count"
scalar ldMacTest.host[42].app 	appPkCount:count 	967198
attr interpolationmode  node
attr source  appPkCount
attr title  "appPkCount, count"
scalar ldMacTest.host[42].mac 	time10:count 	3654
attr source  time10
attr title  "time10, count"
scalar ldMacTest.host[42].mac 	time9:count 	307
attr source  time9
attr title  "time9, count"
scalar ldMacTest.host[42].mac 	time8:count 	147
attr source  time8
attr title  "time8, count"
scalar ldMacTest.host[42].mac 	time7:count 	1
attr source  time7
attr title  "time7, count"
scalar ldMacTest.host[42].mac 	time6:count 	0
attr source  time6
attr title  "time6, count"
scalar ldMacTest.host[42].mac 	time5:count 	0
attr source  time5
attr title  "time5, count"
scalar ldMacTest.host[42].mac 	time4:count 	0
attr source  time4
attr title  "time4, count"
scalar ldMacTest.host[42].mac 	time3:count 	0
attr source  time3
attr title  "time3, count"
scalar ldMacTest.host[42].mac 	time2:count 	0
attr source  time2
attr title  "time2, count"
scalar ldMacTest.host[42].mac 	time1:count 	0
attr source  time1
attr title  "time1, count"
scalar ldMacTest.host[42].mac 	time0:count 	4109
attr source  time0
attr title  "time0, count"
scalar ldMacTest.host[42].mac 	sentPkCount:count 	687594
attr interpolationmode  node
attr source  sentPkCount
attr title  "pkCount, count"
scalar ldMacTest.host[42].mac 	discardPkCount:count 	21986
attr interpolationmode  node
attr source  discardPkCount
attr title  "discardPkCount, count"
scalar ldMacTest.host[42].mac 	queueTime:mean 	87.051838678892
attr source  queueTime
attr title  "queueTime, mean"
scalar ldMacTest.host[43].app 	errorCount:count 	0
attr interpolationmode  node
attr source  errorCount
attr title  "errorCount, count"
scalar ldMacTest.host[43].app 	appPkCount:count 	933243
attr interpolationmode  node
attr source  appPkCount
attr title  "appPkCount, count"
scalar ldMacTest.host[43].mac 	time10:count 	98
attr source  time10
attr title  "time10, count"
scalar ldMacTest.host[43].mac 	time9:count 	4652
attr source  time9
attr title  "time9, count"
scalar ldMacTest.host[43].mac 	time8:count 	23
attr source  time8
attr title  "time8, count"
scalar ldMacTest.host[43].mac 	time7:count 	23
attr source  time7
attr title  "time7, count"
scalar ldMacTest.host[43].mac 	time6:count 	171
attr source  time6
attr title  "time6, count"
scalar ldMacTest.host[43].mac 	time5:count 	286
attr source  time5
attr title  "time5, count"
scalar ldMacTest.host[43].mac 	time4:count 	76
attr source  time4
attr title  "time4, count"
scalar ldMacTest.host[43].mac 	time3:count 	121
attr source  time3
attr title  "time3, count"
scalar ldMacTest.host[43].mac 	time2:count 	172
attr source  time2
attr title  "time2, count"
scalar ldMacTest.host[43].mac 	time1:count 	206
attr source  time1
attr title  "time1, count"
scalar ldMacTest.host[43].mac 	time0:count 	5828
attr source  time0
attr title  "time0, count"
scalar ldMacTest.host[43].mac 	sentPkCount:count 	903380
attr interpolationmode  node
attr source  sentPkCount
attr title  "pkCount, count"
scalar ldMacTest.host[43].mac 	discardPkCount:count 	0
attr interpolationmode  node
attr source  discardPkCount
attr title  "discardPkCount, count"
scalar ldMacTest.host[43].mac 	queueTime:mean 	31.770320554138
attr source  queueTime
attr title  "queueTime, mean"
scalar ldMacTest.host[44].app 	errorCount:count 	0
attr interpolationmode  node
attr source  errorCount
attr title  "errorCount, count"
scalar ldMacTest.host[44].app 	appPkCount:count 	950203
attr interpolationmode  node
attr source  appPkCount
attr title  "appPkCount, count"
scalar ldMacTest.host[44].mac 	time10:count 	6
attr source  time10
attr title  "time10, count"
scalar ldMacTest.host[44].mac 	time9:count 	44
attr source  time9
attr title  "time9, count"
scalar ldMacTest.host[44].mac 	time8:count 	45
attr source  time8
attr title  "time8, count"
scalar ldMacTest.host[44].mac 	time7:count 	46
attr source  time7
attr title  "time7, count"
scalar ldMacTest.host[44].mac 	time6:count 	49
attr source  time6
attr title  "time6, count"
scalar ldMacTest.host[44].mac 	time5:count 	308
attr source  time5
attr title  "time5, count"
scalar ldMacTest.host[44].mac 	time4:count 	75
attr source  time4
attr title  "time4, count"
scalar ldMacTest.host[44].mac 	time3:count 	4738
attr source  time3
attr title  "time3, count"
scalar ldMacTest.host[44].mac 	time2:count 	138
attr source  time2
attr title  "time2, count"
scalar ldMacTest.host[44].mac 	time1:count 	0
attr source  time1
attr title  "time1, count"
scalar ldMacTest.host[44].mac 	time0:count 	5449
attr source  time0
attr title  "time0, count"
scalar ldMacTest.host[44].mac 	sentPkCount:count 	938316
attr interpolationmode  node
attr source  sentPkCount
attr title  "pkCount, count"
scalar ldMacTest.host[44].mac 	discardPkCount:count 	3568
attr interpolationmode  node
attr source  discardPkCount
attr title  "discardPkCount, count"
scalar ldMacTest.host[44].mac 	queueTime:mean 	53.911609294274
attr source  queueTime
attr title  "queueTime, mean"
[...]
attr source  time7
attr title  "time7, count"
scalar ldMacTest.host[68].mac 	time6:count 	115
attr source  time6
attr title  "time6, count"
scalar ldMacTest.host[68].mac 	time5:count 	58
attr source  time5
attr title  "time5, count"
scalar ldMacTest.host[68].mac 	time4:count 	68
attr source  time4
attr title  "time4, count"
scalar ldMacTest.host[68].mac 	time3:count 	92
attr source  time3
attr title  "time3, count"
scalar ldMacTest.host[68].mac 	time2:count 	0
attr source  time2
attr title  "time2, count"
scalar ldMacTest.host[68].mac 	time1:count 	0
attr source  time1
attr title  "time1, count"
scalar ldMacTest.host[68].mac 	time0:count 	5061
attr source  time0
attr title  "time0, count"
scalar ldMacTest.host[68].mac 	sentPkCount:count 	934838
attr interpolationmode  node
attr source  sentPkCount
attr title  "pkCount, count"
scalar ldMacTest.host[68].mac 	discardPkCount:count 	5346
attr interpolationmode  node
attr source  discardPkCount
attr title  "discardPkCount, count"
scalar ldMacTest.host[68].mac 	queueTime:mean 	66.327593552142
attr source  queueTime
attr title  "queueTime, mean"
scalar ldMacTest.host[69].app 	errorCount:count 	0
attr interpolationmode  node
attr source  errorCount
attr title  "errorCount, count"
scalar ldMacTest.host[69].app 	appPkCount:count 	968836
attr interpolationmode  node
attr source  appPkCount
attr title  "appPkCount, count"
scalar ldMacTest.host[69].mac 	time10:count 	575
attr source  time10
attr title  "time10, count"
scalar ldMacTest.host[69].mac 	time9:count 	24
attr source  time9
attr title  "time9, count"
scalar ldMacTest.host[69].mac 	time8:count 	71
attr source  time8
attr title  "time8, count"
scalar ldMacTest.host[69].mac 	time7:count 	73
attr source  time7
attr title  "time7, count"
scalar ldMacTest.host[69].mac 	time6:count 	49
attr source  time6
attr title  "time6, count"
scalar ldMacTest.host[69].mac 	time5:count 	55
attr source  time5
attr title  "time5, count"
scalar ldMacTest.host[69].mac 	time4:count 	72
attr source  time4
attr title  "time4, count"
scalar ldMacTest.host[69].mac 	time3:count 	56
attr source  time3
attr title  "time3, count"
scalar ldMacTest.host[69].mac 	time2:count 	0
attr source  time2
attr title  "time2, count"
scalar ldMacTest.host[69].mac 	time1:count 	0
attr source  time1
attr title  "time1, count"
scalar ldMacTest.host[69].mac 	time0:count 	975
attr source  time0
attr title  "time0, count"
scalar ldMacTest.host[69].mac 	sentPkCount:count 	840071
attr interpolationmode  node
attr source  sentPkCount
attr title  "pkCount, count"
scalar ldMacTest.host[69].mac 	discardPkCount:count 	22407
attr interpolationmode  node
attr source  discardPkCount
attr title  "discardPkCount, count"
scalar ldMacTest.host[69].mac 	queueTime:mean 	112.16555832115
attr source  queueTime
attr title  "queueTime, mean"
scalar ldMacTest.host[70].app 	errorCount:count 	0
attr interpolationmode  node
attr source  errorCount
attr title  "errorCount, count"
scalar ldMacTest.host[70].app 	appPkCount:count 	955749
attr interpolationmode  node
attr source  appPkCount
attr title  "appPkCount, count"
scalar ldMacTest.host[70].mac 	time10:count 	9
attr source  time10
attr title  "time10, count"
scalar ldMacTest.host[70].mac 	time9:count 	1212
attr source  time9
attr title  "time9, count"
scalar ldMacTest.host[70].mac 	time8:count 	2812
attr source  time8
attr title  "time8, count"
scalar ldMacTest.host[70].mac 	time7:count 	777
attr source  time7
attr title  "time7, count"
scalar ldMacTest.host[70].mac 	time6:count 	137
attr source  time6
attr title  "time6, count"
scalar ldMacTest.host[70].mac 	time5:count 	59
attr source  time5
attr title  "time5, count"
scalar ldMacTest.host[70].mac 	time4:count 	102
attr source  time4
attr title  "time4, count"
scalar ldMacTest.host[70].mac 	time3:count 	19
attr source  time3
attr title  "time3, count"
scalar ldMacTest.host[70].mac 	time2:count 	0
attr source  time2
attr title  "time2, count"
scalar ldMacTest.host[70].mac 	time1:count 	0
attr source  time1
attr title  "time1, count"
scalar ldMacTest.host[70].mac 	time0:count 	5127
attr source  time0
attr title  "time0, count"
scalar ldMacTest.host[70].mac 	sentPkCount:count 	932920
attr interpolationmode  node
attr source  sentPkCount
attr title  "pkCount, count"
scalar ldMacTest.host[70].mac 	discardPkCount:count 	3595
attr interpolationmode  node
attr source  discardPkCount
attr title  "discardPkCount, count"
scalar ldMacTest.host[70].mac 	queueTime:mean 	87.311091459343
attr source  queueTime
attr title  "queueTime, mean"
scalar ldMacTest.host[71].app 	errorCount:count 	0
attr interpolationmode  node
attr source  errorCount
attr title  "errorCount, count"
scalar ldMacTest.host[71].app 	appPkCount:count 	963318
attr interpolationmode  node
attr source  appPkCount
attr title  "appPkCount, count"
scalar ldMacTest.host[71].mac 	time10:count 	20
attr source  time10
attr title  "time10, count"
scalar ldMacTest.host[71].mac 	time9:count 	119
attr source  time9
attr title  "time9, count"
scalar ldMacTest.host[71].mac 	time8:count 	86
attr source  time8
attr title  "time8, count"
scalar ldMacTest.host[71].mac 	time7:count 	25
attr source  time7
attr title  "time7, count"
scalar ldMacTest.host[71].mac 	time6:count 	24
attr source  time6
attr title  "time6, count"
scalar ldMacTest.host[71].mac 	time5:count 	25
attr source  time5
attr title  "time5, count"
scalar ldMacTest.host[71].mac 	time4:count 	24
attr source  time4
attr title  "time4, count"
scalar ldMacTest.host[71].mac 	time3:count 	25
attr source  time3
attr title  "time3, count"
scalar ldMacTest.host[71].mac 	time2:count 	1522
attr source  time2
attr title  "time2, count"
scalar ldMacTest.host[71].mac 	time1:count 	3083
attr source  time1
attr title  "time1, count"
scalar ldMacTest.host[71].mac 	time0:count 	4953
attr source  time0
attr title  "time0, count"
scalar ldMacTest.host[71].mac 	sentPkCount:count 	935834
attr interpolationmode  node
attr source  sentPkCount
attr title  "pkCount, count"
scalar ldMacTest.host[71].mac 	discardPkCount:count 	9860
attr interpolationmode  node
attr source  discardPkCount
attr title  "discardPkCount, count"
scalar ldMacTest.host[71].mac 	queueTime:mean 	73.491240684904
attr source  queueTime
attr title  "queueTime, mean"
scalar ldMacTest.host[72].app 	errorCount:count 	0
attr interpolationmode  node
attr source  errorCount
attr title  "errorCount, count"
scalar ldMacTest.host[72].app 	appPkCount:count 	947095
attr interpolationmode  node
attr source  appPkCount
attr title  "appPkCount, count"
scalar ldMacTest.host[72].mac 	time10:count 	0
attr source  time10
attr title  "time10, count"
scalar ldMacTest.host[72].mac 	time9:count 	0
attr source  time9
attr title  "time9, count"
scalar ldMacTest.host[72].mac 	time8:count 	1000
attr source  time8
attr title  "time8, count"
scalar ldMacTest.host[72].mac 	time7:count 	2686
attr source  time7
attr title  "time7, count"
scalar ldMacTest.host[72].mac 	time6:count 	966
attr source  time6
attr title  "time6, count"
scalar ldMacTest.host[72].mac 	time5:count 	184
attr source  time5
attr title  "time5, count"
scalar ldMacTest.host[72].mac 	time4:count 	115
attr source  time4
attr title  "time4, count"
scalar ldMacTest.host[72].mac 	time3:count 	430
attr source  time3
attr title  "time3, count"
scalar ldMacTest.host[72].mac 	time2:count 	81
attr source  time2
attr title  "time2, count"
scalar ldMacTest.host[72].mac 	time1:count 	46
attr source  time1
attr title  "time1, count"
scalar ldMacTest.host[72].mac 	time0:count 	5508
attr source  time0
attr title  "time0, count"
scalar ldMacTest.host[72].mac 	sentPkCount:count 	944634
attr interpolationmode  node
attr source  sentPkCount
attr title  "pkCount, count"
scalar ldMacTest.host[72].mac 	discardPkCount:count 	0
attr interpolationmode  node
attr source  discardPkCount
attr title  "discardPkCount, count"
scalar ldMacTest.host[72].mac 	queueTime:mean 	37.014194049832
attr source  queueTime
attr title  "queueTime, mean"
scalar ldMacTest.host[73].app 	errorCount:count 	0
attr interpolationmode  node
attr source  errorCount
attr title  "errorCount, count"
scalar ldMacTest.host[73].app 	appPkCount:count 	961214
attr interpolationmode  node
attr source  appPkCount
attr title  "appPkCount, count"
scalar ldMacTest.host[73].mac 	time10:count 	20
attr source  time10
attr title  "time10, count"
scalar ldMacTest.host[73].mac 	time9:count 	148
attr source  time9
attr title  "time9, count"
scalar ldMacTest.host[73].mac 	time8:count 	2820
attr source  time8
attr title  "time8, count"
scalar ldMacTest.host[73].mac 	time7:count 	1424
attr source  time7
attr title  "time7, count"
scalar ldMacTest.host[73].mac 	time6:count 	302
attr source  time6
attr title  "time6, count"
scalar ldMacTest.host[73].mac 	time5:count 	46
attr source  time5
attr title  "time5, count"
scalar ldMacTest.host[73].mac 	time4:count 	51
attr source  time4
attr title  "time4, count"
scalar ldMacTest.host[73].mac 	time3:count 	57
attr source  time3
attr title  "time3, count"
scalar ldMacTest.host[73].mac 	time2:count 	44
attr source  time2
attr title  "time2, count"
scalar ldMacTest.host[73].mac 	time1:count 	43
attr source  time1
attr title  "time1, count"
scalar ldMacTest.host[73].mac 	time0:count 	4955
attr source  time0
attr title  "time0, count"
scalar ldMacTest.host[73].mac 	sentPkCount:count 	825476
attr interpolationmode  node
attr source  sentPkCount
attr title  "pkCount, count"
scalar ldMacTest.host[73].mac 	discardPkCount:count 	0
attr interpolationmode  node
attr source  discardPkCount
attr title  "discardPkCount, count"
scalar ldMacTest.host[73].mac 	queueTime:mean 	55.784946469909
attr source  queueTime
attr title  "queueTime, mean"
scalar ldMacTest.host[74].app 	errorCount:count 	0
attr interpolationmode  node
attr source  errorCount
attr title  "errorCount, count"
scalar ldMacTest.host[74].app 	appPkCount:count 	956577
attr interpolationmode  node
attr source  appPkCount
attr title  "appPkCount, count"
scalar ldMacTest.host[74].mac 	time10:count 	249
attr source  time10
attr title  "time10, count"
scalar ldMacTest.host[74].mac 	time9:count 	80
attr source  time9
attr title  "time9, count"
scalar ldMacTest.host[74].mac 	time8:count 	82
attr source  time8
attr title  "time8, count"
scalar ldMacTest.host[74].mac 	time7:count 	25
attr source  time7
attr title  "time7, count"
scalar ldMacTest.host[74].mac 	time6:count 	24
attr source  time6
attr title  "time6, count"
scalar ldMacTest.host[74].mac 	time5:count 	27
attr source  time5
attr title  "time5, count"
scalar ldMacTest.host[74].mac 	time4:count 	1239
attr source  time4
attr title  "time4, count"
scalar ldMacTest.host[74].mac 	time3:count 	3327
attr source  time3
attr title  "time3, count"
scalar ldMacTest.host[74].mac 	time2:count 	0
attr source  time2
attr title  "time2, count"
scalar ldMacTest.host[74].mac 	time1:count 	0
attr source  time1
attr title  "time1, count"
scalar ldMacTest.host[74].mac 	time0:count 	5053
attr source  time0
attr title  "time0, count"
scalar ldMacTest.host[74].mac 	sentPkCount:count 	787764
attr interpolationmode  node
attr source  sentPkCount
attr title  "pkCount, count"
scalar ldMacTest.host[74].mac 	discardPkCount:count 	0
attr interpolationmode  node
attr source  discardPkCount
attr title  "discardPkCount, count"
scalar ldMacTest.host[74].mac 	queueTime:mean 	50.449022387969
attr source  queueTime
attr title  "queueTime, mean"
scalar ldMacTest.host[75].app 	errorCount:count 	0
attr interpolationmode  node
attr source  errorCount
attr title  "errorCount, count"
scalar ldMacTest.host[75].app 	appPkCount:count 	941640
attr interpolationmode  node
attr source  appPkCount
attr title  "appPkCount, count"
scalar ldMacTest.host[75].mac 	time10:count 	161
attr source  time10
attr title  "time10, count"
scalar ldMacTest.host[75].mac 	time9:count 	4629
attr source  time9
attr title  "time9, count"
scalar ldMacTest.host[75].mac 	time8:count 	22
attr source  time8
attr title  "time8, count"
scalar ldMacTest.host[75].mac 	time7:count 	22
attr source  time7
attr title  "time7, count"
scalar ldMacTest.host[75].mac 	time6:count 	23
attr source  time6
attr title  "time6, count"
scalar ldMacTest.host[75].mac 	time5:count 	23
attr source  time5
attr title  "time5, count"
scalar ldMacTest.host[75].mac 	time4:count 	23
attr source  time4
attr title  "time4, count"
scalar ldMacTest.host[75].mac 	time3:count 	23
attr source  time3
attr title  "time3, count"
scalar ldMacTest.host[75].mac 	time2:count 	23
attr source  time2
attr title  "time2, count"
scalar ldMacTest.host[75].mac 	time1:count 	46
attr source  time1
attr title  "time1, count"
scalar ldMacTest.host[75].mac 	time0:count 	4995
attr source  time0
attr title  "time0, count"
scalar ldMacTest.host[75].mac 	sentPkCount:count 	683051
attr interpolationmode  node
attr source  sentPkCount
attr title  "pkCount, count"
scalar ldMacTest.host[75].mac 	discardPkCount:count 	0
attr interpolationmode  node
attr source  discardPkCount
attr title  "discardPkCount, count"
scalar ldMacTest.host[75].mac 	queueTime:mean 	59.801669794002
attr source  queueTime
attr title  "queueTime, mean"
scalar ldMacTest.host[76].app 	errorCount:count 	0
attr interpolationmode  node
attr source  errorCount
attr title  "errorCount, count"
scalar ldMacTest.host[76].app 	appPkCount:count 	929260
attr interpolationmode  node
attr source  appPkCount
attr title  "appPkCount, count"
scalar ldMacTest.host[76].mac 	time10:count 	2177
attr source  time10
attr title  "time10, count"
scalar ldMacTest.host[76].mac 	time9:count 	1904
attr source  time9
attr title  "time9, count"
scalar ldMacTest.host[76].mac 	time8:count 	1192
attr source  time8
attr title  "time8, count"
scalar ldMacTest.host[76].mac 	time7:count 	59
attr source  time7
attr title  "time7, count"
scalar ldMacTest.host[76].mac 	time6:count 	97
attr source  time6
attr title  "time6, count"
scalar ldMacTest.host[76].mac 	time5:count 	69
attr source  time5
attr title  "time5, count"
scalar ldMacTest.host[76].mac 	time4:count 	45
attr source  time4
attr title  "time4, count"
scalar ldMacTest.host[76].mac 	time3:count 	68
attr source  time3
attr title  "time3, count"
scalar ldMacTest.host[76].mac 	time2:count 	852
attr source  time2
attr title  "time2, count"
scalar ldMacTest.host[76].mac 	time1:count 	777
attr source  time1
attr title  "time1, count"
scalar ldMacTest.host[76].mac 	time0:count 	7240
attr source  time0
attr title  "time0, count"
scalar ldMacTest.host[76].mac 	sentPkCount:count 	912907
attr interpolationmode  node
attr source  sentPkCount
attr title  "pkCount, count"
scalar ldMacTest.host[76].mac 	discardPkCount:count 	0
attr interpolationmode  node
attr source  discardPkCount
attr title  "discardPkCount, count"
scalar ldMacTest.host[76].mac 	queueTime:mean 	28.642018094118
attr source  queueTime
attr title  "queueTime, mean"
scalar ldMacTest.host[77].app 	errorCount:count 	0
attr interpolationmode  node
attr source  errorCount
attr title  "errorCount, count"
scalar ldMacTest.host[77].app 	appPkCount:count 	967371
attr interpolationmode  node
attr source  appPkCount
attr title  "appPkCount, count"
scalar ldMacTest.host[77].mac 	time10:count 	230
attr source  time10
attr title  "time10, count"
scalar ldMacTest.host[77].mac 	time9:count 	44
attr source  time9
attr title  "time9, count"
scalar ldMacTest.host[77].mac 	time8:count 	43
attr source  time8
attr title  "time8, count"
scalar ldMacTest.host[77].mac 	time7:count 	43
attr source  time7
attr title  "time7, count"
scalar ldMacTest.host[77].mac 	time6:count 	77
attr source  time6
attr title  "time6, count"
scalar ldMacTest.host[77].mac 	time5:count 	366
attr source  time5
attr title  "time5, count"
scalar ldMacTest.host[77].mac 	time4:count 	1636
attr source  time4
attr title  "time4, count"
scalar ldMacTest.host[77].mac 	time3:count 	2749
attr source  time3
attr title  "time3, count"
scalar ldMacTest.host[77].mac 	time2:count 	171
attr source  time2
attr title  "time2, count"
scalar ldMacTest.host[77].mac 	time1:count 	0
attr source  time1
attr title  "time1, count"
scalar ldMacTest.host[77].mac 	time0:count 	5359
attr source  time0
attr title  "time0, count"
scalar ldMacTest.host[77].mac 	sentPkCount:count 	832706
attr interpolationmode  node
attr source  sentPkCount
attr title  "pkCount, count"
scalar ldMacTest.host[77].mac 	discardPkCount:count 	10155
attr interpolationmode  node
attr source  discardPkCount
attr title  "discardPkCount, count"
scalar ldMacTest.host[77].mac 	queueTime:mean 	50.60595525258
attr source  queueTime
attr title  "queueTime, mean"
scalar ldMacTest.host[78].app 	errorCount:count 	0
attr interpolationmode  node
attr source  errorCount
attr title  "errorCount, count"
scalar ldMacTest.host[78].app 	appPkCount:count 	948884
attr interpolationmode  node
attr source  appPkCount
attr title  "appPkCount, count"
scalar ldMacTest.host[78].mac 	time10:count 	3090
attr source  time10
attr title  "time10, count"
scalar ldMacTest.host[78].mac 	time9:count 	1106
attr source  time9
attr title  "time9, count"
scalar ldMacTest.host[78].mac 	time8:count 	237
attr source  time8
attr title  "time8, count"
scalar ldMacTest.host[78].mac 	time7:count 	50
attr source  time7
attr title  "time7, count"
scalar ldMacTest.host[78].mac 	time6:count 	56
attr source  time6
attr title  "time6, count"
scalar ldMacTest.host[78].mac 	time5:count 	68
attr source  time5
attr title  "time5, count"
scalar ldMacTest.host[78].mac 	time4:count 	93
attr source  time4
attr title  "time4, count"
scalar ldMacTest.host[78].mac 	time3:count 	0
attr source  time3
attr title  "time3, count"
scalar ldMacTest.host[78].mac 	time2:count 	0
attr source  time2
attr title  "time2, count"
scalar ldMacTest.host[78].mac 	time1:count 	0
attr source  time1
attr title  "time1, count"
scalar ldMacTest.host[78].mac 	time0:count 	4700
attr source  time0
attr title  "time0, count"
scalar ldMacTest.host[78].mac 	sentPkCount:count 	920578
attr interpolationmode  node
attr source  sentPkCount
attr title  "pkCount, count"
scalar ldMacTest.host[78].mac 	discardPkCount:count 	5459
attr interpolationmode  node
attr source  discardPkCount
attr title  "discardPkCount, count"
scalar ldMacTest.host[78].mac 	queueTime:mean 	99.506146002705
attr source  queueTime
attr title  "queueTime, mean"
scalar ldMacTest.host[79].app 	errorCount:count 	0
attr interpolationmode  node
attr source  errorCount
attr title  "errorCount, count"
scalar ldMacTest.host[79].app 	appPkCount:count 	952350
attr interpolationmode  node
attr source  appPkCount
attr title  "appPkCount, count"
scalar ldMacTest.host[79].mac 	time10:count 	0
attr source  time10
attr title  "time10, count"
scalar ldMacTest.host[79].mac 	time9:count 	51
attr source  time9
attr title  "time9, count"
scalar ldMacTest.host[79].mac 	time8:count 	50
attr source  time8
attr title  "time8, count"
scalar ldMacTest.host[79].mac 	time7:count 	57
attr source  time7
attr title  "time7, count"
scalar ldMacTest.host[79].mac 	time6:count 	65
attr source  time6
attr title  "time6, count"
scalar ldMacTest.host[79].mac 	time5:count 	3097
attr source  time5
attr title  "time5, count"
scalar ldMacTest.host[79].mac 	time4:count 	1532
attr source  time4
attr title  "time4, count"
scalar ldMacTest.host[79].mac 	time3:count 	61
attr source  time3
attr title  "time3, count"
scalar ldMacTest.host[79].mac 	time2:count 	511
attr source  time2
attr title  "time2, count"
scalar ldMacTest.host[79].mac 	time1:count 	0
attr source  time1
attr title  "time1, count"
scalar ldMacTest.host[79].mac 	time0:count 	5424
attr source  time0
attr title  "time0, count"
scalar ldMacTest.host[79].mac 	sentPkCount:count 	932459
attr interpolationmode  node
attr source  sentPkCount
attr title  "pkCount, count"
scalar ldMacTest.host[79].mac 	discardPkCount:count 	603
attr interpolationmode  node
attr source  discardPkCount
attr title  "discardPkCount, count"
scalar ldMacTest.host[79].mac 	queueTime:mean 	66.514585628449
attr source  queueTime
attr title  "queueTime, mean"
