version 2
run LD-hostNum-8-20170327-21:51:23-18872
attr configname LD-hostNum
attr datetime 20170327-21:51:23
attr experiment LD-hostNum
attr inifile omnetpp.ini
attr iterationvars $0=90
attr iterationvars2 "$0=90, $repetition=0"
attr measurement $0=90
attr network ldMacTest
attr processid 18872
attr repetition 0
attr replication #0
attr resultdir results
attr runnumber 8
attr seedset 8
param **.ap.macType "\"LdApMac\""
param **.ap.mobility.initFromDisplayString false
param **.ap.mobility.initialX 300000m
param **.ap.mobility.initialY 300000m
param **.ap.mobility.initialZ 0m
param **.ap.mobilityType "\"StationaryMobility\""
param **.constraintAreaMaxX 600000m
param **.constraintAreaMaxY 600000m
param **.constraintAreaMaxZ 0m
param **.constraintAreaMinX 0m
param **.constraintAreaMinY 0m
param **.constraintAreaMinZ 0m
param **.hostNum 50
param **.host[*].app.burstInterval exponential(1.5s)
param **.host[*].app.burstNum "normal(200, 50)"
param **.host[*].app.packetLength 4096b
param **.host[*].app.startTime 0s
param **.host[*].appType "\"BurstGenerator\""
param **.host[*].mac.communicationRange 300000m
param **.host[*].mac.reqLength 100b
param **.host[*].mac.txRate 100000000bps
param **.host[*].macType "\"LdHostMac\""
param **.host[*].mobility.initFromDisplayString false
param **.host[*].mobility.speed uniform(80mps,100mps)
param **.host[*].mobility.updateInterval 1s
param **.host[*].mobility.waitTime 0s
param **.host[*].mobilityType "\"RandomWPMobility\""
param **.reqSlotNum 20
param **.slotLength 0.1ms
param **.slotNum 1000

scalar ldMacTest.ap.mac 	pkCount10:count 	5950359
attr interpolationmode  node
attr source  pkCount10
attr title  "pkCount10, count"
scalar ldMacTest.ap.mac 	pkCount9:count 	8751339
attr interpolationmode  node
attr source  pkCount9
attr title  "pkCount9, count"
scalar ldMacTest.ap.mac 	pkCount8:count 	9431699
attr interpolationmode  node
attr source  pkCount8
attr title  "pkCount8, count"
scalar ldMacTest.ap.mac 	pkCount7:count 	9648155
attr interpolationmode  node
attr source  pkCount7
attr title  "pkCount7, count"
scalar ldMacTest.ap.mac 	pkCount6:count 	9328823
attr interpolationmode  node
attr source  pkCount6
attr title  "pkCount6, count"
scalar ldMacTest.ap.mac 	pkCount5:count 	7592597
attr interpolationmode  node
attr source  pkCount5
attr title  "pkCount5, count"
scalar ldMacTest.ap.mac 	pkCount4:count 	8237740
attr interpolationmode  node
attr source  pkCount4
attr title  "pkCount4, count"
scalar ldMacTest.ap.mac 	pkCount3:count 	6557778
attr interpolationmode  node
attr source  pkCount3
attr title  "pkCount3, count"
scalar ldMacTest.ap.mac 	pkCount2:count 	3769370
attr interpolationmode  node
attr source  pkCount2
attr title  "pkCount2, count"
scalar ldMacTest.ap.mac 	pkCount1:count 	1245641
attr interpolationmode  node
attr source  pkCount1
attr title  "pkCount1, count"
scalar ldMacTest.ap.mac 	pkCount:count 	70513501
attr interpolationmode  node
attr source  pkCount
attr title  "pkCount, count"
scalar ldMacTest.host[0].app 	errorCount:count 	0
attr interpolationmode  node
attr source  errorCount
attr title  "errorCount, count"
scalar ldMacTest.host[0].app 	appPkCount:count 	948552
attr interpolationmode  node
attr source  appPkCount
attr title  "appPkCount, count"
scalar ldMacTest.host[0].mac 	time10:count 	0
attr source  time10
attr title  "time10, count"
scalar ldMacTest.host[0].mac 	time9:count 	32
attr source  time9
attr title  "time9, count"
scalar ldMacTest.host[0].mac 	time8:count 	115
attr source  time8
attr title  "time8, count"
scalar ldMacTest.host[0].mac 	time7:count 	130
attr source  time7
attr title  "time7, count"
scalar ldMacTest.host[0].mac 	time6:count 	988
attr source  time6
attr title  "time6, count"
scalar ldMacTest.host[0].mac 	time5:count 	39
attr source  time5
attr title  "time5, count"
scalar ldMacTest.host[0].mac 	time4:count 	0
attr source  time4
attr title  "time4, count"
scalar ldMacTest.host[0].mac 	time3:count 	0
attr source  time3
attr title  "time3, count"
scalar ldMacTest.host[0].mac 	time2:count 	0
attr source  time2
attr title  "time2, count"
scalar ldMacTest.host[0].mac 	time1:count 	0
attr source  time1
attr title  "time1, count"
scalar ldMacTest.host[0].mac 	time0:count 	1304
attr source  time0
attr title  "time0, count"
scalar ldMacTest.host[0].mac 	sentPkCount:count 	828091
attr interpolationmode  node
attr source  sentPkCount
attr title  "pkCount, count"
scalar ldMacTest.host[0].mac 	discardPkCount:count 	101897
attr interpolationmode  node
attr source  discardPkCount
attr title  "discardPkCount, count"
scalar ldMacTest.host[0].mac 	queueTime:mean 	144.37548960539
attr source  queueTime
attr title  "queueTime, mean"
scalar ldMacTest.host[1].app 	errorCount:count 	0
attr interpolationmode  node
attr source  errorCount
attr title  "errorCount, count"
scalar ldMacTest.host[1].app 	appPkCount:count 	960941
attr interpolationmode  node
attr source  appPkCount
attr title  "appPkCount, count"
scalar ldMacTest.host[1].mac 	time10:count 	11
attr source  time10
attr title  "time10, count"
scalar ldMacTest.host[1].mac 	time9:count 	922
attr source  time9
attr title  "time9, count"
scalar ldMacTest.host[1].mac 	time8:count 	141
attr source  time8
attr title  "time8, count"
scalar ldMacTest.host[1].mac 	time7:count 	24
attr source  time7
attr title  "time7, count"
scalar ldMacTest.host[1].mac 	time6:count 	26
attr source  time6
attr title  "time6, count"
scalar ldMacTest.host[1].mac 	time5:count 	28
attr source  time5
attr title  "time5, count"
scalar ldMacTest.host[1].mac 	time4:count 	52
attr source  time4
attr title  "time4, count"
scalar ldMacTest.host[1].mac 	time3:count 	48
attr source  time3
attr title  "time3, count"
scalar ldMacTest.host[1].mac 	time2:count 	0
attr source  time2
attr title  "time2, count"
scalar ldMacTest.host[1].mac 	time1:count 	0
attr source  time1
attr title  "time1, count"
scalar ldMacTest.host[1].mac 	time0:count 	1252
attr source  time0
attr title  "time0, count"
scalar ldMacTest.host[1].mac 	sentPkCount:count 	830957
attr interpolationmode  node
attr source  sentPkCount
attr title  "pkCount, count"
scalar ldMacTest.host[1].mac 	discardPkCount:count 	111373
attr interpolationmode  node
attr source  discardPkCount
attr title  "discardPkCount, count"
scalar ldMacTest.host[1].mac 	queueTime:mean 	148.52486807516
attr source  queueTime
attr title  "queueTime, mean"
scalar ldMacTest.host[2].app 	errorCount:count 	0
attr interpolationmode  node
attr source  errorCount
attr title  "errorCount, count"
scalar ldMacTest.host[2].app 	appPkCount:count 	962781
attr interpolationmode  node
attr source  appPkCount
attr title  "appPkCount, count"
scalar ldMacTest.host[2].mac 	time10:count 	233
attr source  time10
attr title  "time10, count"
scalar ldMacTest.host[2].mac 	time9:count 	20
attr source  time9
attr title  "time9, count"
scalar ldMacTest.host[2].mac 	time8:count 	21
attr source  time8
attr title  "time8, count"
scalar ldMacTest.host[2].mac 	time7:count 	65
attr source  time7
attr title  "time7, count"
scalar ldMacTest.host[2].mac 	time6:count 	71
attr source  time6
attr title  "time6, count"
scalar ldMacTest.host[2].mac 	time5:count 	84
attr source  time5
attr title  "time5, count"
scalar ldMacTest.host[2].mac 	time4:count 	135
attr source  time4
attr title  "time4, count"
scalar ldMacTest.host[2].mac 	time3:count 	0
attr source  time3
attr title  "time3, count"
scalar ldMacTest.host[2].mac 	time2:count 	0
attr source  time2
attr title  "time2, count"
scalar ldMacTest.host[2].mac 	time1:count 	0
attr source  time1
attr title  "time1, count"
scalar ldMacTest.host[2].mac 	time0:count 	629
attr source  time0
attr title  "time0, count"
scalar ldMacTest.host[2].mac 	sentPkCount:count 	833554
attr interpolationmode  node
attr source  sentPkCount
attr title  "pkCount, count"
scalar ldMacTest.host[2].mac 	discardPkCount:count 	96200
attr interpolationmode  node
attr source  discardPkCount
attr title  "discardPkCount, count"
scalar ldMacTest.host[2].mac 	queueTime:mean 	148.28399665214
attr source  queueTime
attr title  "queueTime, mean"
scalar ldMacTest.host[3].app 	errorCount:count 	0
attr interpolationmode  node
attr source  errorCount
attr title  "errorCount, count"
scalar ldMacTest.host[3].app 	appPkCount:count 	964145
attr interpolationmode  node
attr source  appPkCount
attr title  "appPkCount, count"
scalar ldMacTest.host[3].mac 	time10:count 	227
attr source  time10
attr title  "time10, count"
scalar ldMacTest.host[3].mac 	time9:count 	66
attr source  time9
attr title  "time9, count"
scalar ldMacTest.host[3].mac 	time8:count 	58
attr source  time8
attr title  "time8, count"
scalar ldMacTest.host[3].mac 	time7:count 	74
attr source  time7
attr title  "time7, count"
scalar ldMacTest.host[3].mac 	time6:count 	119
attr source  time6
attr title  "time6, count"
scalar ldMacTest.host[3].mac 	time5:count 	0
attr source  time5
attr title  "time5, count"
scalar ldMacTest.host[3].mac 	time4:count 	0
attr source  time4
attr title  "time4, count"
scalar ldMacTest.host[3].mac 	time3:count 	0
attr source  time3
attr title  "time3, count"
scalar ldMacTest.host[3].mac 	time2:count 	0
attr source  time2
attr title  "time2, count"
scalar ldMacTest.host[3].mac 	time1:count 	0
attr source  time1
attr title  "time1, count"
scalar ldMacTest.host[3].mac 	time0:count 	544
attr source  time0
attr title  "time0, count"
scalar ldMacTest.host[3].mac 	sentPkCount:count 	755566
attr interpolationmode  node
attr source  sentPkCount
attr title  "pkCount, count"
scalar ldMacTest.host[3].mac 	discardPkCount:count 	93804
attr interpolationmode  node
attr source  discardPkCount
attr title  "discardPkCount, count"
scalar ldMacTest.host[3].mac 	queueTime:mean 	147.22262560744
attr source  queueTime
attr title  "queueTime, mean"
scalar ldMacTest.host[4].app 	errorCount:count 	0
attr interpolationmode  node
attr source  errorCount
attr title  "errorCount, count"
scalar ldMacTest.host[4].app 	appPkCount:count 	955120
attr interpolationmode  node
attr source  appPkCount
attr title  "appPkCount, count"
scalar ldMacTest.host[4].mac 	time10:count 	0
attr source  time10
attr title  "time10, count"
scalar ldMacTest.host[4].mac 	time9:count 	590
attr source  time9
attr title  "time9, count"
scalar ldMacTest.host[4].mac 	time8:count 	152
attr source  time8
attr title  "time8, count"
scalar ldMacTest.host[4].mac 	time7:count 	58
attr source  time7
attr title  "time7, count"
scalar ldMacTest.host[4].mac 	time6:count 	58
attr source  time6
attr title  "time6, count"
scalar ldMacTest.host[4].mac 	time5:count 	57
attr source  time5
attr title  "time5, count"
scalar ldMacTest.host[4].mac 	time4:count 	53
attr source  time4
attr title  "time4, count"
scalar ldMacTest.host[4].mac 	time3:count 	39
attr source  time3
attr title  "time3, count"
scalar ldMacTest.host[4].mac 	time2:count 	42
attr source  time2
attr title  "time2, count"
scalar ldMacTest.host[4].mac 	time1:count 	33
attr source  time1
attr title  "time1, count"
scalar ldMacTest.host[4].mac 	time0:count 	1082
attr source  time0
attr title  "time0, count"
scalar ldMacTest.host[4].mac 	sentPkCount:count 	861962
attr interpolationmode  node
attr source  sentPkCount
attr title  "pkCount, count"
scalar ldMacTest.host[4].mac 	discardPkCount:count 	73182
attr interpolationmode  node
attr source  discardPkCount
attr title  "discardPkCount, count"
scalar ldMacTest.host[4].mac 	queueTime:mean 	143.16266696191
attr source  queueTime
attr title  "queueTime, mean"
scalar ldMacTest.host[5].app 	errorCount:count 	0
attr interpolationmode  node
attr source  errorCount
attr title  "errorCount, count"
scalar ldMacTest.host[5].app 	appPkCount:count 	948415
attr interpolationmode  node
attr source  appPkCount
attr title  "appPkCount, count"
scalar ldMacTest.host[5].mac 	time10:count 	88
attr source  time10
attr title  "time10, count"
scalar ldMacTest.host[5].mac 	time9:count 	48
attr source  time9
attr title  "time9, count"
scalar ldMacTest.host[5].mac 	time8:count 	775
attr source  time8
attr title  "time8, count"
scalar ldMacTest.host[5].mac 	time7:count 	216
attr source  time7
attr title  "time7, count"
scalar ldMacTest.host[5].mac 	time6:count 	28
attr source  time6
attr title  "time6, count"
scalar ldMacTest.host[5].mac 	time5:count 	50
attr source  time5
attr title  "time5, count"
scalar ldMacTest.host[5].mac 	time4:count 	48
attr source  time4
attr title  "time4, count"
scalar ldMacTest.host[5].mac 	time3:count 	52
attr source  time3
attr title  "time3, count"
scalar ldMacTest.host[5].mac 	time2:count 	73
attr source  time2
attr title  "time2, count"
scalar ldMacTest.host[5].mac 	time1:count 	0
attr source  time1
attr title  "time1, count"
scalar ldMacTest.host[5].mac 	time0:count 	1378
attr source  time0
attr title  "time0, count"
scalar ldMacTest.host[5].mac 	sentPkCount:count 	813191
attr interpolationmode  node
attr source  sentPkCount
attr title  "pkCount, count"
scalar ldMacTest.host[5].mac 	discardPkCount:count 	67197
attr interpolationmode  node
attr source  discardPkCount
attr title  "discardPkCount, count"
scalar ldMacTest.host[5].mac 	queueTime:mean 	133.59762059285
attr source  queueTime
attr title  "queueTime, mean"
scalar ldMacTest.host[6].app 	errorCount:count 	0
attr interpolationmode  node
attr source  errorCount
attr title  "errorCount, count"
scalar ldMacTest.host[6].app 	appPkCount:count 	951066
attr interpolationmode  node
attr source  appPkCount
attr title  "appPkCount, count"
scalar ldMacTest.host[6].mac 	time10:count 	25
attr source  time10
attr title  "time10, count"
scalar ldMacTest.host[6].mac 	time9:count 	115
attr source  time9
attr title  "time9, count"
scalar ldMacTest.host[6].mac 	time8:count 	20
attr source  time8
attr title  "time8, count"
scalar ldMacTest.host[6].mac 	time7:count 	20
attr source  time7
attr title  "time7, count"
scalar ldMacTest.host[6].mac 	time6:count 	1010
attr source  time6
attr title  "time6, count"
scalar ldMacTest.host[6].mac 	time5:count 	54
attr source  time5
attr title  "time5, count"
scalar ldMacTest.host[6].mac 	time4:count 	43
attr source  time4
attr title  "time4, count"
scalar ldMacTest.host[6].mac 	time3:count 	47
attr source  time3
attr title  "time3, count"
scalar ldMacTest.host[6].mac 	time2:count 	67
attr source  time2
attr title  "time2, count"
scalar ldMacTest.host[6].mac 	time1:count 	0
attr source  time1
attr title  "time1, count"
scalar ldMacTest.host[6].mac 	time0:count 	1401
attr source  time0
attr title  "time0, count"
scalar ldMacTest.host[6].mac 	sentPkCount:count 	848319
attr interpolationmode  node
attr source  sentPkCount
attr title  "pkCount, count"
scalar ldMacTest.host[6].mac 	discardPkCount:count 	83178
attr interpolationmode  node
attr source  discardPkCount
attr title  "discardPkCount, count"
scalar ldMacTest.host[6].mac 	queueTime:mean 	139.81969988951
attr source  queueTime
attr title  "queueTime, mean"
scalar ldMacTest.host[7].app 	errorCount:count 	0
attr interpolationmode  node
attr source  errorCount
attr title  "errorCount, count"
scalar ldMacTest.host[7].app 	appPkCount:count 	927443
attr interpolationmode  node
attr source  appPkCount
attr title  "appPkCount, count"
scalar ldMacTest.host[7].mac 	time10:count 	0
attr source  time10
attr title  "time10, count"
scalar ldMacTest.host[7].mac 	time9:count 	851
attr source  time9
attr title  "time9, count"
scalar ldMacTest.host[7].mac 	time8:count 	179
attr source  time8
attr title  "time8, count"
scalar ldMacTest.host[7].mac 	time7:count 	92
attr source  time7
attr title  "time7, count"
scalar ldMacTest.host[7].mac 	time6:count 	145
attr source  time6
attr title  "time6, count"
scalar ldMacTest.host[7].mac 	time5:count 	20
attr source  time5
attr title  "time5, count"
scalar ldMacTest.host[7].mac 	time4:count 	22
attr source  time4
attr title  "time4, count"
scalar ldMacTest.host[7].mac 	time3:count 	57
attr source  time3
attr title  "time3, count"
scalar ldMacTest.host[7].mac 	time2:count 	32
attr source  time2
attr title  "time2, count"
scalar ldMacTest.host[7].mac 	time1:count 	0
attr source  time1
attr title  "time1, count"
scalar ldMacTest.host[7].mac 	time0:count 	1398
attr source  time0
attr title  "time0, count"
scalar ldMacTest.host[7].mac 	sentPkCount:count 	835944
attr interpolationmode  node
attr source  sentPkCount
attr title  "pkCount, count"
scalar ldMacTest.host[7].mac 	discardPkCount:count 	71696
attr interpolationmode  node
attr source  discardPkCount
attr title  "discardPkCount, count"
scalar ldMacTest.host[7].mac 	queueTime:mean 	136.98260422929
attr source  queueTime
attr title  "queueTime, mean"
scalar ldMacTest.host[8].app 	errorCount:count 	0
attr interpolationmode  node
attr source  errorCount
attr title  "errorCount, count"
scalar ldMacTest.host[8].app 	appPkCount:count 	974424
attr interpolationmode  node
attr source  appPkCount
attr title  "appPkCount, count"
scalar ldMacTest.host[8].mac 	time10:count 	805
attr source  time10
attr title  "time10, count"
scalar ldMacTest.host[8].mac 	time9:count 	110
attr source  time9
attr title  "time9, count"
scalar ldMacTest.host[8].mac 	time8:count 	60
attr source  time8
attr title  "time8, count"
scalar ldMacTest.host[8].mac 	time7:count 	42
attr source  time7
attr title  "time7, count"
scalar ldMacTest.host[8].mac 	time6:count 	45
attr source  time6
attr title  "time6, count"
scalar ldMacTest.host[8].mac 	time5:count 	41
attr source  time5
attr title  "time5, count"
scalar ldMacTest.host[8].mac 	time4:count 	36
attr source  time4
attr title  "time4, count"
scalar ldMacTest.host[8].mac 	time3:count 	37
attr source  time3
attr title  "time3, count"
scalar ldMacTest.host[8].mac 	time2:count 	37
attr source  time2
attr title  "time2, count"
scalar ldMacTest.host[8].mac 	time1:count 	54
attr source  time1
attr title  "time1, count"
scalar ldMacTest.host[8].mac 	time0:count 	1267
attr source  time0
attr title  "time0, count"
scalar ldMacTest.host[8].mac 	sentPkCount:count 	827231
attr interpolationmode  node
attr source  sentPkCount
attr title  "pkCount, count"
scalar ldMacTest.host[8].mac 	discardPkCount:count 	110549
attr interpolationmode  node
attr source  discardPkCount
attr title  "discardPkCount, count"
scalar ldMacTest.host[8].mac 	queueTime:mean 	143.23232468993
attr source  queueTime
attr title  "queueTime, mean"
scalar ldMacTest.host[9].app 	errorCount:count 	0
attr interpolationmode  node
attr source  errorCount
attr title  "errorCount, count"
scalar ldMacTest.host[9].app 	appPkCount:count 	917015
attr interpolationmode  node
attr source  appPkCount
attr title  "appPkCount, count"
scalar ldMacTest.host[9].mac 	time10:count 	130
attr source  time10
attr title  "time10, count"
scalar ldMacTest.host[9].mac 	time9:count 	40
attr source  time9
attr title  "time9, count"
scalar ldMacTest.host[9].mac 	time8:count 	41
attr source  time8
attr title  "time8, count"
scalar ldMacTest.host[9].mac 	time7:count 	120
attr source  time7
attr title  "time7, count"
scalar ldMacTest.host[9].mac 	time6:count 	405
attr source  time6
attr title  "time6, count"
scalar ldMacTest.host[9].mac 	time5:count 	818
attr source  time5
attr title  "time5, count"
scalar ldMacTest.host[9].mac 	time4:count 	0
attr source  time4
attr title  "time4, count"
scalar ldMacTest.host[9].mac 	time3:count 	0
attr source  time3
attr title  "time3, count"
scalar ldMacTest.host[9].mac 	time2:count 	0
attr source  time2
attr title  "time2, count"
scalar ldMacTest.host[9].mac 	time1:count 	0
attr source  time1
attr title  "time1, count"
scalar ldMacTest.host[9].mac 	time0:count 	1554
attr source  time0
attr title  "time0, count"
scalar ldMacTest.host[9].mac 	sentPkCount:count 	552137
attr interpolationmode  node
attr source  sentPkCount
attr title  "pkCount, count"
scalar ldMacTest.host[9].mac 	discardPkCount:count 	17618
attr interpolationmode  node
attr source  discardPkCount
attr title  "discardPkCount, count"
scalar ldMacTest.host[9].mac 	queueTime:mean 	92.630306409715
attr source  queueTime
attr title  "queueTime, mean"
scalar ldMacTest.host[10].app 	errorCount:count 	0
attr interpolationmode  node
attr source  errorCount
attr title  "errorCount, count"
scalar ldMacTest.host[10].app 	appPkCount:count 	959858
attr interpolationmode  node
attr source  appPkCount
attr title  "appPkCount, count"
scalar ldMacTest.host[10].mac 	time10:count 	115
attr source  time10
attr title  "time10, count"
scalar ldMacTest.host[10].mac 	time9:count 	48
attr source  time9
attr title  "time9, count"
scalar ldMacTest.host[10].mac 	time8:count 	23
attr source  time8
attr title  "time8, count"
scalar ldMacTest.host[10].mac 	time7:count 	22
attr source  time7
attr title  "time7, count"
scalar ldMacTest.host[10].mac 	time6:count 	1045
attr source  time6
attr title  "time6, count"
scalar ldMacTest.host[10].mac 	time5:count 	58
attr source  time5
attr title  "time5, count"
scalar ldMacTest.host[10].mac 	time4:count 	91
attr source  time4
attr title  "time4, count"
scalar ldMacTest.host[10].mac 	time3:count 	0
attr source  time3
attr title  "time3, count"
scalar ldMacTest.host[10].mac 	time2:count 	0
attr source  time2
attr title  "time2, count"
scalar ldMacTest.host[10].mac 	time1:count 	0
attr source  time1
attr title  "time1, count"
scalar ldMacTest.host[10].mac 	time0:count 	1402
attr source  time0
attr title  "time0, count"
scalar ldMacTest.host[10].mac 	sentPkCount:count 	749317
attr interpolationmode  node
attr source  sentPkCount
attr title  "pkCount, count"
scalar ldMacTest.host[10].mac 	discardPkCount:count 	85739
attr interpolationmode  node
attr source  discardPkCount
attr title  "discardPkCount, count"
scalar ldMacTest.host[10].mac 	queueTime:mean 	123.11499308287
attr source  queueTime
attr title  "queueTime, mean"
scalar ldMacTest.host[11].app 	errorCount:count 	0
attr interpolationmode  node
attr source  errorCount
attr title  "errorCount, count"
scalar ldMacTest.host[11].app 	appPkCount:count 	932133
attr interpolationmode  node
attr source  appPkCount
attr title  "appPkCount, count"
scalar ldMacTest.host[11].mac 	time10:count 	416
attr source  time10
attr title  "time10, count"
scalar ldMacTest.host[11].mac 	time9:count 	18
attr source  time9
attr title  "time9, count"
scalar ldMacTest.host[11].mac 	time8:count 	18
attr source  time8
attr title  "time8, count"
scalar ldMacTest.host[11].mac 	time7:count 	20
attr source  time7
attr title  "time7, count"
scalar ldMacTest.host[11].mac 	time6:count 	19
attr source  time6
attr title  "time6, count"
scalar ldMacTest.host[11].mac 	time5:count 	20
attr source  time5
attr title  "time5, count"
scalar ldMacTest.host[11].mac 	time4:count 	20
attr source  time4
attr title  "time4, count"
scalar ldMacTest.host[11].mac 	time3:count 	20
attr source  time3
attr title  "time3, count"
scalar ldMacTest.host[11].mac 	time2:count 	24
attr source  time2
attr title  "time2, count"
scalar ldMacTest.host[11].mac 	time1:count 	11
attr source  time1
attr title  "time1, count"
scalar ldMacTest.host[11].mac 	time0:count 	586
attr source  time0
attr title  "time0, count"
scalar ldMacTest.host[11].mac 	sentPkCount:count 	654029
attr interpolationmode  node
attr source  sentPkCount
attr title  "pkCount, count"
scalar ldMacTest.host[11].mac 	discardPkCount:count 	53025
attr interpolationmode  node
attr source  discardPkCount
attr title  "discardPkCount, count"
scalar ldMacTest.host[11].mac 	queueTime:mean 	127.64537758842
attr source  queueTime
attr title  "queueTime, mean"
scalar ldMacTest.host[12].app 	errorCount:count 	0
attr interpolationmode  node
attr source  errorCount
attr title  "errorCount, count"
scalar ldMacTest.host[12].app 	appPkCount:count 	971703
attr interpolationmode  node
attr source  appPkCount
attr title  "appPkCount, count"
scalar ldMacTest.host[12].mac 	time10:count 	0
attr source  time10
attr title  "time10, count"
scalar ldMacTest.host[12].mac 	time9:count 	0
attr source  time9
attr title  "time9, count"
scalar ldMacTest.host[12].mac 	time8:count 	0
attr source  time8
attr title  "time8, count"
scalar ldMacTest.host[12].mac 	time7:count 	10
attr source  time7
attr title  "time7, count"
scalar ldMacTest.host[12].mac 	time6:count 	134
attr source  time6
attr title  "time6, count"
scalar ldMacTest.host[12].mac 	time5:count 	93
attr source  time5
attr title  "time5, count"
scalar ldMacTest.host[12].mac 	time4:count 	194
attr source  time4
attr title  "time4, count"
scalar ldMacTest.host[12].mac 	time3:count 	727
attr source  time3
attr title  "time3, count"
scalar ldMacTest.host[12].mac 	time2:count 	33
attr source  time2
attr title  "time2, count"
scalar ldMacTest.host[12].mac 	time1:count 	0
attr source  time1
attr title  "time1, count"
scalar ldMacTest.host[12].mac 	time0:count 	1191
attr source  time0
attr title  "time0, count"
scalar ldMacTest.host[12].mac 	sentPkCount:count 	845979
attr interpolationmode  node
attr source  sentPkCount
attr title  "pkCount, count"
scalar ldMacTest.host[12].mac 	discardPkCount:count 	106013
attr interpolationmode  node
attr source  discardPkCount
attr title  "discardPkCount, count"
scalar ldMacTest.host[12].mac 	queueTime:mean 	143.77025123236
attr source  queueTime
attr title  "queueTime, mean"
scalar ldMacTest.host[13].app 	errorCount:count 	0
attr interpolationmode  node
attr source  errorCount
attr title  "errorCount, count"
scalar ldMacTest.host[13].app 	appPkCount:count 	944781
attr interpolationmode  node
attr source  appPkCount
attr title  "appPkCount, count"
scalar ldMacTest.host[13].mac 	time10:count 	27
attr source  time10
attr title  "time10, count"
scalar ldMacTest.host[13].mac 	time9:count 	125
attr source  time9
attr title  "time9, count"
scalar ldMacTest.host[13].mac 	time8:count 	127
attr source  time8
attr title  "time8, count"
scalar ldMacTest.host[13].mac 	time7:count 	19
attr source  time7
attr title  "time7, count"
scalar ldMacTest.host[13].mac 	time6:count 	20
attr source  time6
attr title  "time6, count"
scalar ldMacTest.host[13].mac 	time5:count 	23
attr source  time5
attr title  "time5, count"
scalar ldMacTest.host[13].mac 	time4:count 	653
attr source  time4
attr title  "time4, count"
scalar ldMacTest.host[13].mac 	time3:count 	741
attr source  time3
attr title  "time3, count"
scalar ldMacTest.host[13].mac 	time2:count 	0
attr source  time2
attr title  "time2, count"
scalar ldMacTest.host[13].mac 	time1:count 	0
attr source  time1
attr title  "time1, count"
scalar ldMacTest.host[13].mac 	time0:count 	1735
attr source  time0
attr title  "time0, count"
scalar ldMacTest.host[13].mac 	sentPkCount:count 	821119
attr interpolationmode  node
attr source  sentPkCount
attr title  "pkCount, count"
scalar ldMacTest.host[13].mac 	discardPkCount:count 	104544
attr interpolationmode  node
attr source  discardPkCount
attr title  "discardPkCount, count"
scalar ldMacTest.host[13].mac 	queueTime:mean 	136.8406156099
attr source  queueTime
attr title  "queueTime, mean"
scalar ldMacTest.host[14].app 	errorCount:count 	0
attr interpolationmode  node
attr source  errorCount
attr title  "errorCount, count"
scalar ldMacTest.host[14].app 	appPkCount:count 	979794
attr interpolationmode  node
attr source  appPkCount
attr title  "appPkCount, count"
scalar ldMacTest.host[14].mac 	time10:count 	978
attr source  time10
attr title  "time10, count"
scalar ldMacTest.host[14].mac 	time9:count 	207
attr source  time9
attr title  "time9, count"
scalar ldMacTest.host[14].mac 	time8:count 	73
attr source  time8
attr title  "time8, count"
scalar ldMacTest.host[14].mac 	time7:count 	87
attr source  time7
attr title  "time7, count"
scalar ldMacTest.host[14].mac 	time6:count 	89
attr source  time6
attr title  "time6, count"
scalar ldMacTest.host[14].mac 	time5:count 	0
attr source  time5
attr title  "time5, count"
scalar ldMacTest.host[14].mac 	time4:count 	0
attr source  time4
attr title  "time4, count"
scalar ldMacTest.host[14].mac 	time3:count 	0
attr source  time3
attr title  "time3, count"
scalar ldMacTest.host[14].mac 	time2:count 	0
attr source  time2
attr title  "time2, count"
scalar ldMacTest.host[14].mac 	time1:count 	0
attr source  time1
attr title  "time1, count"
scalar ldMacTest.host[14].mac 	time0:count 	1434
attr source  time0
attr title  "time0, count"
scalar ldMacTest.host[14].mac 	sentPkCount:count 	734906
attr interpolationmode  node
attr source  sentPkCount
attr title  "pkCount, count"
scalar ldMacTest.host[14].mac 	discardPkCount:count 	108794
attr interpolationmode  node
attr source  discardPkCount
attr title  "discardPkCount, count"
scalar ldMacTest.host[14].mac 	queueTime:mean 	124.22497096282
attr source  queueTime
attr title  "queueTime, mean"
scalar ldMacTest.host[15].app 	errorCount:count 	0
attr interpolationmode  node
attr source  errorCount
attr title  "errorCount, count"
scalar ldMacTest.host[15].app 	appPkCount:count 	964434
attr interpolationmode  node
attr source  appPkCount
attr title  "appPkCount, count"
scalar ldMacTest.host[15].mac 	time10:count 	144
attr source  time10
attr title  "time10, count"
scalar ldMacTest.host[15].mac 	time9:count 	40
attr source  time9
attr title  "time9, count"
scalar ldMacTest.host[15].mac 	time8:count 	42
attr source  time8
attr title  "time8, count"
scalar ldMacTest.host[15].mac 	time7:count 	42
attr source  time7
attr title  "time7, count"
scalar ldMacTest.host[15].mac 	time6:count 	42
attr source  time6
attr title  "time6, count"
scalar ldMacTest.host[15].mac 	time5:count 	43
attr source  time5
attr title  "time5, count"
scalar ldMacTest.host[15].mac 	time4:count 	43
attr source  time4
attr title  "time4, count"
scalar ldMacTest.host[15].mac 	time3:count 	44
attr source  time3
attr title  "time3, count"
scalar ldMacTest.host[15].mac 	time2:count 	44
attr source  time2
attr title  "time2, count"
scalar ldMacTest.host[15].mac 	time1:count 	40
attr source  time1
attr title  "time1, count"
scalar ldMacTest.host[15].mac 	time0:count 	524
attr source  time0
attr title  "time0, count"
scalar ldMacTest.host[15].mac 	sentPkCount:count 	816567
attr interpolationmode  node
attr source  sentPkCount
attr title  "pkCount, count"
scalar ldMacTest.host[15].mac 	discardPkCount:count 	99994
attr interpolationmode  node
attr source  discardPkCount
attr title  "discardPkCount, count"
scalar ldMacTest.host[15].mac 	queueTime:mean 	155.55653431843
attr source  queueTime
attr title  "queueTime, mean"
scalar ldMacTest.host[16].app 	errorCount:count 	0
attr interpolationmode  node
attr source  errorCount
attr title  "errorCount, count"
scalar ldMacTest.host[16].app 	appPkCount:count 	975292
attr interpolationmode  node
attr source  appPkCount
attr title  "appPkCount, count"
scalar ldMacTest.host[16].mac 	time10:count 	27
attr source  time10
attr title  "time10, count"
scalar ldMacTest.host[16].mac 	time9:count 	52
attr source  time9
attr title  "time9, count"
scalar ldMacTest.host[16].mac 	time8:count 	63
attr source  time8
attr title  "time8, count"
scalar ldMacTest.host[16].mac 	time7:count 	949
attr source  time7
attr title  "time7, count"
scalar ldMacTest.host[16].mac 	time6:count 	123
attr source  time6
attr title  "time6, count"
scalar ldMacTest.host[16].mac 	time5:count 	0
attr source  time5
attr title  "time5, count"
scalar ldMacTest.host[16].mac 	time4:count 	0
attr source  time4
attr title  "time4, count"
scalar ldMacTest.host[16].mac 	time3:count 	0
attr source  time3
attr title  "time3, count"
scalar ldMacTest.host[16].mac 	time2:count 	0
attr source  time2
attr title  "time2, count"
scalar ldMacTest.host[16].mac 	time1:count 	0
attr source  time1
attr title  "time1, count"
scalar ldMacTest.host[16].mac 	time0:count 	1214
attr source  time0
attr title  "time0, count"
scalar ldMacTest.host[16].mac 	sentPkCount:count 	831976
attr interpolationmode  node
attr source  sentPkCount
attr title  "pkCount, count"
scalar ldMacTest.host[16].mac 	discardPkCount:count 	124645
attr interpolationmode  node
attr source  discardPkCount
attr title  "discardPkCount, count"
scalar ldMacTest.host[16].mac 	queueTime:mean 	148.27554969103
attr source  queueTime
attr title  "queueTime, mean"
scalar ldMacTest.host[17].app 	errorCount:count 	0
attr interpolationmode  node
attr source  errorCount
attr title  "errorCount, count"
scalar ldMacTest.host[17].app 	appPkCount:count 	956868
attr interpolationmode  node
attr source  appPkCount
attr title  "appPkCount, count"
scalar ldMacTest.host[17].mac 	time10:count 	57
attr source  time10
attr title  "time10, count"
scalar ldMacTest.host[17].mac 	time9:count 	57
attr source  time9
attr title  "time9, count"
scalar ldMacTest.host[17].mac 	time8:count 	67
attr source  time8
attr title  "time8, count"
scalar ldMacTest.host[17].mac 	time7:count 	1031
attr source  time7
attr title  "time7, count"
scalar ldMacTest.host[17].mac 	time6:count 	44
attr source  time6
attr title  "time6, count"
scalar ldMacTest.host[17].mac 	time5:count 	54
attr source  time5
attr title  "time5, count"
scalar ldMacTest.host[17].mac 	time4:count 	73
attr source  time4
attr title  "time4, count"
scalar ldMacTest.host[17].mac 	time3:count 	0
attr source  time3
attr title  "time3, count"
scalar ldMacTest.host[17].mac 	time2:count 	0
attr source  time2
attr title  "time2, count"
scalar ldMacTest.host[17].mac 	time1:count 	0
attr source  time1
attr title  "time1, count"
scalar ldMacTest.host[17].mac 	time0:count 	1383
attr source  time0
attr title  "time0, count"
scalar ldMacTest.host[17].mac 	sentPkCount:count 	816777
attr interpolationmode  node
attr source  sentPkCount
attr title  "pkCount, count"
scalar ldMacTest.host[17].mac 	discardPkCount:count 	83520
attr interpolationmode  node
attr source  discardPkCount
attr title  "discardPkCount, count"
scalar ldMacTest.host[17].mac 	queueTime:mean 	136.24259116029
attr source  queueTime
attr title  "queueTime, mean"
scalar ldMacTest.host[18].app 	errorCount:count 	0
attr interpolationmode  node
attr source  errorCount
attr title  "errorCount, count"
scalar ldMacTest.host[18].app 	appPkCount:count 	955075
attr interpolationmode  node
attr source  appPkCount
attr title  "appPkCount, count"
scalar ldMacTest.host[18].mac 	time10:count 	97
attr source  time10
attr title  "time10, count"
scalar ldMacTest.host[18].mac 	time9:count 	22
attr source  time9
attr title  "time9, count"
scalar ldMacTest.host[18].mac 	time8:count 	25
attr source  time8
attr title  "time8, count"
scalar ldMacTest.host[18].mac 	time7:count 	36
attr source  time7
attr title  "time7, count"
scalar ldMacTest.host[18].mac 	time6:count 	61
attr source  time6
attr title  "time6, count"
scalar ldMacTest.host[18].mac 	time5:count 	50
attr source  time5
attr title  "time5, count"
scalar ldMacTest.host[18].mac 	time4:count 	40
attr source  time4
attr title  "time4, count"
scalar ldMacTest.host[18].mac 	time3:count 	44
attr source  time3
attr title  "time3, count"
scalar ldMacTest.host[18].mac 	time2:count 	66
attr source  time2
attr title  "time2, count"
scalar ldMacTest.host[18].mac 	time1:count 	6
attr source  time1
attr title  "time1, count"
scalar ldMacTest.host[18].mac 	time0:count 	447
attr source  time0
attr title  "time0, count"
scalar ldMacTest.host[18].mac 	sentPkCount:count 	739651
attr interpolationmode  node
attr source  sentPkCount
attr title  "pkCount, count"
scalar ldMacTest.host[18].mac 	discardPkCount:count 	86337
attr interpolationmode  node
attr source  discardPkCount
attr title  "discardPkCount, count"
scalar ldMacTest.host[18].mac 	queueTime:mean 	147.41887996102
attr source  queueTime
attr title  "queueTime, mean"
scalar ldMacTest.host[19].app 	errorCount:count 	0
attr interpolationmode  node
attr source  errorCount
attr title  "errorCount, count"
scalar ldMacTest.host[19].app 	appPkCount:count 	966078
attr interpolationmode  node
attr source  appPkCount
attr title  "appPkCount, count"
scalar ldMacTest.host[19].mac 	time10:count 	13
attr source  time10
attr title  "time10, count"
scalar ldMacTest.host[19].mac 	time9:count 	45
attr source  time9
attr title  "time9, count"
scalar ldMacTest.host[19].mac 	time8:count 	58
attr source  time8
attr title  "time8, count"
scalar ldMacTest.host[19].mac 	time7:count 	788
attr source  time7
attr title  "time7, count"
scalar ldMacTest.host[19].mac 	time6:count 	287
attr source  time6
attr title  "time6, count"
scalar ldMacTest.host[19].mac 	time5:count 	47
attr source  time5
attr title  "time5, count"
scalar ldMacTest.host[19].mac 	time4:count 	65
attr source  time4
attr title  "time4, count"
scalar ldMacTest.host[19].mac 	time3:count 	39
attr source  time3
attr title  "time3, count"
scalar ldMacTest.host[19].mac 	time2:count 	0
attr source  time2
attr title  "time2, count"
scalar ldMacTest.host[19].mac 	time1:count 	0
attr source  time1
attr title  "time1, count"
scalar ldMacTest.host[19].mac 	time0:count 	1342
attr source  time0
attr title  "time0, count"
scalar ldMacTest.host[19].mac 	sentPkCount:count 	842498
attr interpolationmode  node
attr source  sentPkCount
attr title  "pkCount, count"
scalar ldMacTest.host[19].mac 	discardPkCount:count 	104195
attr interpolationmode  node
attr source  discardPkCount
attr title  "discardPkCount, count"
scalar ldMacTest.host[19].mac 	queueTime:mean 	146.06087017261
attr source  queueTime
attr title  "queueTime, mean"
scalar ldMacTest.host[20].app 	errorCount:count 	0
attr interpolationmode  node
attr source  errorCount
attr title  "errorCount, count"
scalar ldMacTest.host[20].app 	appPkCount:count 	934499
attr interpolationmode  node
attr source  appPkCount
attr title  "appPkCount, count"
scalar ldMacTest.host[20].mac 	time10:count 	31
attr source  time10
attr title  "time10, count"
scalar ldMacTest.host[20].mac 	time9:count 	45
attr source  time9
attr title  "time9, count"
scalar ldMacTest.host[20].mac 	time8:count 	52
attr source  time8
attr title  "time8, count"
scalar ldMacTest.host[20].mac 	time7:count 	94
attr source  time7
attr title  "time7, count"
scalar ldMacTest.host[20].mac 	time6:count 	333
attr source  time6
attr title  "time6, count"
scalar ldMacTest.host[20].mac 	time5:count 	863
attr source  time5
attr title  "time5, count"
scalar ldMacTest.host[20].mac 	time4:count 	117
attr source  time4
attr title  "time4, count"
scalar ldMacTest.host[20].mac 	time3:count 	72
attr source  time3
attr title  "time3, count"
scalar ldMacTest.host[20].mac 	time2:count 	11
attr source  time2
attr title  "time2, count"
scalar ldMacTest.host[20].mac 	time1:count 	0
attr source  time1
attr title  "time1, count"
scalar ldMacTest.host[20].mac 	time0:count 	1618
attr source  time0
attr title  "time0, count"
scalar ldMacTest.host[20].mac 	sentPkCount:count 	835238
attr interpolationmode  node
attr source  sentPkCount
attr title  "pkCount, count"
scalar ldMacTest.host[20].mac 	discardPkCount:count 	79779
attr interpolationmode  node
attr source  discardPkCount
attr title  "discardPkCount, count"
scalar ldMacTest.host[20].mac 	queueTime:mean 	139.69097049968
attr source  queueTime
attr title  "queueTime, mean"
scalar ldMacTest.host[21].app 	errorCount:count 	0
attr interpolationmode  node
attr source  errorCount
attr title  "errorCount, count"
scalar ldMacTest.host[21].app 	appPkCount:count 	953227
attr interpolationmode  node
attr source  appPkCount
attr title  "appPkCount, count"
scalar ldMacTest.host[21].mac 	time10:count 	31
attr source  time10
attr title  "time10, count"
scalar ldMacTest.host[21].mac 	time9:count 	20
attr source  time9
attr title  "time9, count"
scalar ldMacTest.host[21].mac 	time8:count 	20
attr source  time8
attr title  "time8, count"
scalar ldMacTest.host[21].mac 	time7:count 	45
attr source  time7
attr title  "time7, count"
scalar ldMacTest.host[21].mac 	time6:count 	65
attr source  time6
attr title  "time6, count"
scalar ldMacTest.host[21].mac 	time5:count 	73
attr source  time5
attr title  "time5, count"
scalar ldMacTest.host[21].mac 	time4:count 	50
attr source  time4
attr title  "time4, count"
scalar ldMacTest.host[21].mac 	time3:count 	65
attr source  time3
attr title  "time3, count"
scalar ldMacTest.host[21].mac 	time2:count 	0
attr source  time2
attr title  "time2, count"
scalar ldMacTest.host[21].mac 	time1:count 	0
attr source  time1
attr title  "time1, count"
scalar ldMacTest.host[21].mac 	time0:count 	369
attr source  time0
attr title  "time0, count"
scalar ldMacTest.host[21].mac 	sentPkCount:count 	715680
attr interpolationmode  node
attr source  sentPkCount
attr title  "pkCount, count"
scalar ldMacTest.host[21].mac 	discardPkCount:count 	75573
attr interpolationmode  node
attr source  discardPkCount
attr title  "discardPkCount, count"
scalar ldMacTest.host[21].mac 	queueTime:mean 	153.14886040214
attr source  queueTime
attr title  "queueTime, mean"
scalar ldMacTest.host[22].app 	errorCount:count 	0
attr interpolationmode  node
attr source  errorCount
attr title  "errorCount, count"
scalar ldMacTest.host[22].app 	appPkCount:count 	952563
attr interpolationmode  node
attr source  appPkCount
attr title  "appPkCount, count"
scalar ldMacTest.host[22].mac 	time10:count 	43
attr source  time10
attr title  "time10, count"
scalar ldMacTest.host[22].mac 	time9:count 	20
attr source  time9
attr title  "time9, count"
scalar ldMacTest.host[22].mac 	time8:count 	20
attr source  time8
attr title  "time8, count"
scalar ldMacTest.host[22].mac 	time7:count 	1195
attr source  time7
attr title  "time7, count"
scalar ldMacTest.host[22].mac 	time6:count 	53
attr source  time6
attr title  "time6, count"
scalar ldMacTest.host[22].mac 	time5:count 	42
attr source  time5
attr title  "time5, count"
scalar ldMacTest.host[22].mac 	time4:count 	41
attr source  time4
attr title  "time4, count"
scalar ldMacTest.host[22].mac 	time3:count 	45
attr source  time3
attr title  "time3, count"
scalar ldMacTest.host[22].mac 	time2:count 	68
attr source  time2
attr title  "time2, count"
scalar ldMacTest.host[22].mac 	time1:count 	3
attr source  time1
attr title  "time1, count"
scalar ldMacTest.host[22].mac 	time0:count 	1530
attr source  time0
attr title  "time0, count"
scalar ldMacTest.host[22].mac 	sentPkCount:count 	675155
attr interpolationmode  node
attr source  sentPkCount
attr title  "pkCount, count"
scalar ldMacTest.host[22].mac 	discardPkCount:count 	57790
attr interpolationmode  node
attr source  discardPkCount
attr title  "discardPkCount, count"
scalar ldMacTest.host[22].mac 	queueTime:mean 	134.49187350889
attr source  queueTime
attr title  "queueTime, mean"
scalar ldMacTest.host[23].app 	errorCount:count 	0
attr interpolationmode  node
attr source  errorCount
attr title  "errorCount, count"
scalar ldMacTest.host[23].app 	appPkCount:count 	940942
attr interpolationmode  node
attr source  appPkCount
attr title  "appPkCount, count"
scalar ldMacTest.host[23].mac 	time10:count 	67
attr source  time10
attr title  "time10, count"
scalar ldMacTest.host[23].mac 	time9:count 	98
attr source  time9
attr title  "time9, count"
scalar ldMacTest.host[23].mac 	time8:count 	22
attr source  time8
attr title  "time8, count"
scalar ldMacTest.host[23].mac 	time7:count 	21
attr source  time7
attr title  "time7, count"
scalar ldMacTest.host[23].mac 	time6:count 	23
attr source  time6
attr title  "time6, count"
scalar ldMacTest.host[23].mac 	time5:count 	24
attr source  time5
attr title  "time5, count"
scalar ldMacTest.host[23].mac 	time4:count 	29
attr source  time4
attr title  "time4, count"
scalar ldMacTest.host[23].mac 	time3:count 	946
attr source  time3
attr title  "time3, count"
scalar ldMacTest.host[23].mac 	time2:count 	0
attr source  time2
attr title  "time2, count"
scalar ldMacTest.host[23].mac 	time1:count 	0
attr source  time1
attr title  "time1, count"
scalar ldMacTest.host[23].mac 	time0:count 	1230
attr source  time0
attr title  "time0, count"
scalar ldMacTest.host[23].mac 	sentPkCount:count 	639384
attr interpolationmode  node
attr source  sentPkCount
attr title  "pkCount, count"
scalar ldMacTest.host[23].mac 	discardPkCount:count 	58719
attr interpolationmode  node
attr source  discardPkCount
attr title  "discardPkCount, count"
scalar ldMacTest.host[23].mac 	queueTime:mean 	124.4706649753
attr source  queueTime
attr title  "queueTime, mean"
scalar ldMacTest.host[24].app 	errorCount:count 	0
attr interpolationmode  node
attr source  errorCount
attr title  "errorCount, count"
scalar ldMacTest.host[24].app 	appPkCount:count 	970986
attr interpolationmode  node
attr source  appPkCount
attr title  "appPkCount, count"
scalar ldMacTest.host[24].mac 	time10:count 	835
attr source  time10
attr title  "time10, count"
scalar ldMacTest.host[24].mac 	time9:count 	123
attr source  time9
attr title  "time9, count"
scalar ldMacTest.host[24].mac 	time8:count 	25
attr source  time8
attr title  "time8, count"
scalar ldMacTest.host[24].mac 	time7:count 	16
attr source  time7
attr title  "time7, count"
scalar ldMacTest.host[24].mac 	time6:count 	0
attr source  time6
attr title  "time6, count"
scalar ldMacTest.host[24].mac 	time5:count 	0
attr source  time5
attr title  "time5, count"
scalar ldMacTest.host[24].mac 	time4:count 	0
attr source  time4
attr title  "time4, count"
scalar ldMacTest.host[24].mac 	time3:count 	0
attr source  time3
attr title  "time3, count"
scalar ldMacTest.host[24].mac 	time2:count 	0
attr source  time2
attr title  "time2, count"
scalar ldMacTest.host[24].mac 	time1:count 	0
attr source  time1
attr title  "time1, count"
scalar ldMacTest.host[24].mac 	time0:count 	999
attr source  time0
attr title  "time0, count"
scalar ldMacTest.host[24].mac 	sentPkCount:count 	569409
attr interpolationmode  node
attr source  sentPkCount
attr title  "pkCount, count"
scalar ldMacTest.host[24].mac 	discardPkCount:count 	78911
attr interpolationmode  node
attr source  discardPkCount
attr title  "discardPkCount, count"
scalar ldMacTest.host[24].mac 	queueTime:mean 	126.36329500689
attr source  queueTime
attr title  "queueTime, mean"
scalar ldMacTest.host[25].app 	errorCount:count 	0
attr interpolationmode  node
attr source  errorCount
attr title  "errorCount, count"
scalar ldMacTest.host[25].app 	appPkCount:count 	945307
attr interpolationmode  node
attr source  appPkCount
attr title  "appPkCount, count"
scalar ldMacTest.host[25].mac 	time10:count 	35
attr source  time10
attr title  "time10, count"
scalar ldMacTest.host[25].mac 	time9:count 	55
attr source  time9
attr title  "time9, count"
scalar ldMacTest.host[25].mac 	time8:count 	37
attr source  time8
attr title  "time8, count"
scalar ldMacTest.host[25].mac 	time7:count 	50
attr source  time7
attr title  "time7, count"
scalar ldMacTest.host[25].mac 	time6:count 	62
attr source  time6
attr title  "time6, count"
scalar ldMacTest.host[25].mac 	time5:count 	71
attr source  time5
attr title  "time5, count"
scalar ldMacTest.host[25].mac 	time4:count 	113
attr source  time4
attr title  "time4, count"
scalar ldMacTest.host[25].mac 	time3:count 	814
attr source  time3
attr title  "time3, count"
scalar ldMacTest.host[25].mac 	time2:count 	0
attr source  time2
attr title  "time2, count"
scalar ldMacTest.host[25].mac 	time1:count 	0
attr source  time1
attr title  "time1, count"
scalar ldMacTest.host[25].mac 	time0:count 	1237
attr source  time0
attr title  "time0, count"
scalar ldMacTest.host[25].mac 	sentPkCount:count 	836944
attr interpolationmode  node
attr source  sentPkCount
attr title  "pkCount, count"
scalar ldMacTest.host[25].mac 	discardPkCount:count 	89507
attr interpolationmode  node
attr source  discardPkCount
attr title  "discardPkCount, count"
scalar ldMacTest.host[25].mac 	queueTime:mean 	139.66553698067
attr source  queueTime
attr title  "queueTime, mean"
scalar ldMacTest.host[26].app 	errorCount:count 	0
attr interpolationmode  node
attr source  errorCount
attr title  "errorCount, count"
scalar ldMacTest.host[26].app 	appPkCount:count 	959863
attr interpolationmode  node
attr source  appPkCount
attr title  "appPkCount, count"
scalar ldMacTest.host[26].mac 	time10:count 	17
attr source  time10
attr title  "time10, count"
scalar ldMacTest.host[26].mac 	time9:count 	997
attr source  time9
attr title  "time9, count"
scalar ldMacTest.host[26].mac 	time8:count 	347
attr source  time8
attr title  "time8, count"
scalar ldMacTest.host[26].mac 	time7:count 	71
attr source  time7
attr title  "time7, count"
scalar ldMacTest.host[26].mac 	time6:count 	79
attr source  time6
attr title  "time6, count"
scalar ldMacTest.host[26].mac 	time5:count 	92
attr source  time5
attr title  "time5, count"
scalar ldMacTest.host[26].mac 	time4:count 	35
attr source  time4
attr title  "time4, count"
scalar ldMacTest.host[26].mac 	time3:count 	0
attr source  time3
attr title  "time3, count"
scalar ldMacTest.host[26].mac 	time2:count 	0
attr source  time2
attr title  "time2, count"
scalar ldMacTest.host[26].mac 	time1:count 	0
attr source  time1
attr title  "time1, count"
scalar ldMacTest.host[26].mac 	time0:count 	1638
attr source  time0
attr title  "time0, count"
scalar ldMacTest.host[26].mac 	sentPkCount:count 	836063
attr interpolationmode  node
attr source  sentPkCount
attr title  "pkCount, count"
scalar ldMacTest.host[26].mac 	discardPkCount:count 	103992
attr interpolationmode  node
attr source  discardPkCount
attr title  "discardPkCount, count"
scalar ldMacTest.host[26].mac 	queueTime:mean 	140.73307114882
attr source  queueTime
attr title  "queueTime, mean"
scalar ldMacTest.host[27].app 	errorCount:count 	0
attr interpolationmode  node
attr source  errorCount
attr title  "errorCount, count"
scalar ldMacTest.host[27].app 	appPkCount:count 	1002707
attr interpolationmode  node
attr source  appPkCount
attr title  "appPkCount, count"
scalar ldMacTest.host[27].mac 	time10:count 	902
attr source  time10
attr title  "time10, count"
scalar ldMacTest.host[27].mac 	time9:count 	109
attr source  time9
attr title  "time9, count"
scalar ldMacTest.host[27].mac 	time8:count 	0
attr source  time8
attr title  "time8, count"
scalar ldMacTest.host[27].mac 	time7:count 	0
attr source  time7
attr title  "time7, count"
scalar ldMacTest.host[27].mac 	time6:count 	0
attr source  time6
attr title  "time6, count"
scalar ldMacTest.host[27].mac 	time5:count 	0
attr source  time5
attr title  "time5, count"
scalar ldMacTest.host[27].mac 	time4:count 	0
attr source  time4
attr title  "time4, count"
scalar ldMacTest.host[27].mac 	time3:count 	0
attr source  time3
attr title  "time3, count"
scalar ldMacTest.host[27].mac 	time2:count 	0
attr source  time2
attr title  "time2, count"
scalar ldMacTest.host[27].mac 	time1:count 	0
attr source  time1
attr title  "time1, count"
scalar ldMacTest.host[27].mac 	time0:count 	1011
attr source  time0
attr title  "time0, count"
scalar ldMacTest.host[27].mac 	sentPkCount:count 	438604
attr interpolationmode  node
attr source  sentPkCount
attr title  "pkCount, count"
scalar ldMacTest.host[27].mac 	discardPkCount:count 	48483
attr interpolationmode  node
attr source  discardPkCount
attr title  "discardPkCount, count"
scalar ldMacTest.host[27].mac 	queueTime:mean 	118.39892858805
attr source  queueTime
attr title  "queueTime, mean"
scalar ldMacTest.host[28].app 	errorCount:count 	0
attr interpolationmode  node
attr source  errorCount
attr title  "errorCount, count"
scalar ldMacTest.host[28].app 	appPkCount:count 	941633
attr interpolationmode  node
attr source  appPkCount
attr title  "appPkCount, count"
scalar ldMacTest.host[28].mac 	time10:count 	38
attr source  time10
attr title  "time10, count"
scalar ldMacTest.host[28].mac 	time9:count 	46
attr source  time9
attr title  "time9, count"
scalar ldMacTest.host[28].mac 	time8:count 	50
attr source  time8
attr title  "time8, count"
scalar ldMacTest.host[28].mac 	time7:count 	58
attr source  time7
attr title  "time7, count"
scalar ldMacTest.host[28].mac 	time6:count 	1050
attr source  time6
attr title  "time6, count"
scalar ldMacTest.host[28].mac 	time5:count 	93
attr source  time5
attr title  "time5, count"
scalar ldMacTest.host[28].mac 	time4:count 	22
attr source  time4
attr title  "time4, count"
scalar ldMacTest.host[28].mac 	time3:count 	0
attr source  time3
attr title  "time3, count"
scalar ldMacTest.host[28].mac 	time2:count 	0
attr source  time2
attr title  "time2, count"
scalar ldMacTest.host[28].mac 	time1:count 	0
attr source  time1
attr title  "time1, count"
scalar ldMacTest.host[28].mac 	time0:count 	1357
attr source  time0
attr title  "time0, count"
scalar ldMacTest.host[28].mac 	sentPkCount:count 	830566
attr interpolationmode  node
attr source  sentPkCount
attr title  "pkCount, count"
scalar ldMacTest.host[28].mac 	discardPkCount:count 	91988
attr interpolationmode  node
attr source  discardPkCount
attr title  "discardPkCount, count"
scalar ldMacTest.host[28].mac 	queueTime:mean 	141.94162915419
attr source  queueTime
attr title  "queueTime, mean"
scalar ldMacTest.host[29].app 	errorCount:count 	0
attr interpolationmode  node
attr source  errorCount
attr title  "errorCount, count"
scalar ldMacTest.host[29].app 	appPkCount:count 	974332
attr interpolationmode  node
attr source  appPkCount
attr title  "appPkCount, count"
scalar ldMacTest.host[29].mac 	time10:count 	99
attr source  time10
attr title  "time10, count"
scalar ldMacTest.host[29].mac 	time9:count 	124
attr source  time9
attr title  "time9, count"
scalar ldMacTest.host[29].mac 	time8:count 	584
attr source  time8
attr title  "time8, count"
scalar ldMacTest.host[29].mac 	time7:count 	563
attr source  time7
attr title  "time7, count"
scalar ldMacTest.host[29].mac 	time6:count 	78
attr source  time6
attr title  "time6, count"
scalar ldMacTest.host[29].mac 	time5:count 	0
attr source  time5
attr title  "time5, count"
scalar ldMacTest.host[29].mac 	time4:count 	0
attr source  time4
attr title  "time4, count"
scalar ldMacTest.host[29].mac 	time3:count 	0
attr source  time3
attr title  "time3, count"
scalar ldMacTest.host[29].mac 	time2:count 	0
attr source  time2
attr title  "time2, count"
scalar ldMacTest.host[29].mac 	time1:count 	0
attr source  time1
attr title  "time1, count"
scalar ldMacTest.host[29].mac 	time0:count 	1448
attr source  time0
attr title  "time0, count"
scalar ldMacTest.host[29].mac 	sentPkCount:count 	794268
attr interpolationmode  node
attr source  sentPkCount
attr title  "pkCount, count"
scalar ldMacTest.host[29].mac 	discardPkCount:count 	116391
attr interpolationmode  node
attr source  discardPkCount
attr title  "discardPkCount, count"
scalar ldMacTest.host[29].mac 	queueTime:mean 	139.74457763234
attr source  queueTime
attr title  "queueTime, mean"
scalar ldMacTest.host[30].app 	errorCount:count 	0
attr interpolationmode  node
attr source  errorCount
attr title  "errorCount, count"
scalar ldMacTest.host[30].app 	appPkCount:count 	948623
attr interpolationmode  node
attr source  appPkCount
attr title  "appPkCount, count"
scalar ldMacTest.host[30].mac 	time10:count 	88
attr source  time10
attr title  "time10, count"
scalar ldMacTest.host[30].mac 	time9:count 	48
attr source  time9
attr title  "time9, count"
scalar ldMacTest.host[30].mac 	time8:count 	44
attr source  time8
attr title  "time8, count"
scalar ldMacTest.host[30].mac 	time7:count 	45
attr source  time7
attr title  "time7, count"
scalar ldMacTest.host[30].mac 	time6:count 	49
attr source  time6
attr title  "time6, count"
scalar ldMacTest.host[30].mac 	time5:count 	56
attr source  time5
attr title  "time5, count"
scalar ldMacTest.host[30].mac 	time4:count 	141
attr source  time4
attr title  "time4, count"
scalar ldMacTest.host[30].mac 	time3:count 	0
attr source  time3
attr title  "time3, count"
scalar ldMacTest.host[30].mac 	time2:count 	0
attr source  time2
attr title  "time2, count"
scalar ldMacTest.host[30].mac 	time1:count 	0
attr source  time1
attr title  "time1, count"
scalar ldMacTest.host[30].mac 	time0:count 	471
attr source  time0
attr title  "time0, count"
scalar ldMacTest.host[30].mac 	sentPkCount:count 	818795
attr interpolationmode  node
attr source  sentPkCount
attr title  "pkCount, count"
scalar ldMacTest.host[30].mac 	discardPkCount:count 	86917
attr interpolationmode  node
attr source  discardPkCount
attr title  "discardPkCount, count"
scalar ldMacTest.host[30].mac 	queueTime:mean 	150.94964871534
attr source  queueTime
attr title  "queueTime, mean"
scalar ldMacTest.host[31].app 	errorCount:count 	0
attr interpolationmode  node
attr source  errorCount
attr title  "errorCount, count"
scalar ldMacTest.host[31].app 	appPkCount:count 	982396
attr interpolationmode  node
attr source  appPkCount
attr title  "appPkCount, count"
scalar ldMacTest.host[31].mac 	time10:count 	134
attr source  time10
attr title  "time10, count"
scalar ldMacTest.host[31].mac 	time9:count 	491
attr source  time9
attr title  "time9, count"
scalar ldMacTest.host[31].mac 	time8:count 	328
attr source  time8
attr title  "time8, count"
scalar ldMacTest.host[31].mac 	time7:count 	40
attr source  time7
attr title  "time7, count"
scalar ldMacTest.host[31].mac 	time6:count 	38
attr source  time6
attr title  "time6, count"
scalar ldMacTest.host[31].mac 	time5:count 	42
attr source  time5
attr title  "time5, count"
scalar ldMacTest.host[31].mac 	time4:count 	45
attr source  time4
attr title  "time4, count"
scalar ldMacTest.host[31].mac 	time3:count 	0
attr source  time3
attr title  "time3, count"
scalar ldMacTest.host[31].mac 	time2:count 	0
attr source  time2
attr title  "time2, count"
scalar ldMacTest.host[31].mac 	time1:count 	0
attr source  time1
attr title  "time1, count"
scalar ldMacTest.host[31].mac 	time0:count 	1118
attr source  time0
attr title  "time0, count"
scalar ldMacTest.host[31].mac 	sentPkCount:count 	519347
attr interpolationmode  node
attr source  sentPkCount
attr title  "pkCount, count"
scalar ldMacTest.host[31].mac 	discardPkCount:count 	71868
attr interpolationmode  node
attr source  discardPkCount
attr title  "discardPkCount, count"
scalar ldMacTest.host[31].mac 	queueTime:mean 	126.88445436123
attr source  queueTime
attr title  "queueTime, mean"
scalar ldMacTest.host[32].app 	errorCount:count 	0
attr interpolationmode  node
attr source  errorCount
attr title  "errorCount, count"
scalar ldMacTest.host[32].app 	appPkCount:count 	941168
attr interpolationmode  node
attr source  appPkCount
attr title  "appPkCount, count"
scalar ldMacTest.host[32].mac 	time10:count 	42
attr source  time10
attr title  "time10, count"
scalar ldMacTest.host[32].mac 	time9:count 	20
attr source  time9
attr title  "time9, count"
scalar ldMacTest.host[32].mac 	time8:count 	19
attr source  time8
attr title  "time8, count"
scalar ldMacTest.host[32].mac 	time7:count 	20
attr source  time7
attr title  "time7, count"
scalar ldMacTest.host[32].mac 	time6:count 	35
attr source  time6
attr title  "time6, count"
scalar ldMacTest.host[32].mac 	time5:count 	48
attr source  time5
attr title  "time5, count"
scalar ldMacTest.host[32].mac 	time4:count 	90
attr source  time4
attr title  "time4, count"
scalar ldMacTest.host[32].mac 	time3:count 	148
attr source  time3
attr title  "time3, count"
scalar ldMacTest.host[32].mac 	time2:count 	0
attr source  time2
attr title  "time2, count"
scalar ldMacTest.host[32].mac 	time1:count 	0
attr source  time1
attr title  "time1, count"
scalar ldMacTest.host[32].mac 	time0:count 	422
attr source  time0
attr title  "time0, count"
scalar ldMacTest.host[32].mac 	sentPkCount:count 	799156
attr interpolationmode  node
attr source  sentPkCount
attr title  "pkCount, count"
scalar ldMacTest.host[32].mac 	discardPkCount:count 	79887
attr interpolationmode  node
attr source  discardPkCount
attr title  "discardPkCount, count"
scalar ldMacTest.host[32].mac 	queueTime:mean 	150.90364485925
attr source  queueTime
attr title  "queueTime, mean"
scalar ldMacTest.host[33].app 	errorCount:count 	0
attr interpolationmode  node
attr source  errorCount
attr title  "errorCount, count"
scalar ldMacTest.host[33].app 	appPkCount:count 	947507
attr interpolationmode  node
attr source  appPkCount
attr title  "appPkCount, count"
scalar ldMacTest.host[33].mac 	time10:count 	30
attr source  time10
attr title  "time10, count"
scalar ldMacTest.host[33].mac 	time9:count 	19
attr source  time9
attr title  "time9, count"
scalar ldMacTest.host[33].mac 	time8:count 	35
attr source  time8
attr title  "time8, count"
scalar ldMacTest.host[33].mac 	time7:count 	40
attr source  time7
attr title  "time7, count"
scalar ldMacTest.host[33].mac 	time6:count 	41
attr source  time6
attr title  "time6, count"
scalar ldMacTest.host[33].mac 	time5:count 	41
attr source  time5
attr title  "time5, count"
scalar ldMacTest.host[33].mac 	time4:count 	43
attr source  time4
attr title  "time4, count"
scalar ldMacTest.host[33].mac 	time3:count 	42
attr source  time3
attr title  "time3, count"
scalar ldMacTest.host[33].mac 	time2:count 	43
attr source  time2
attr title  "time2, count"
scalar ldMacTest.host[33].mac 	time1:count 	43
attr source  time1
attr title  "time1, count"
scalar ldMacTest.host[33].mac 	time0:count 	377
attr source  time0
attr title  "time0, count"
scalar ldMacTest.host[33].mac 	sentPkCount:count 	732550
attr interpolationmode  node
attr source  sentPkCount
attr title  "pkCount, count"
scalar ldMacTest.host[33].mac 	discardPkCount:count 	73013
attr interpolationmode  node
attr source  discardPkCount
attr title  "discardPkCount, count"
scalar ldMacTest.host[33].mac 	queueTime:mean 	150.02578728062
attr source  queueTime
attr title  "queueTime, mean"
scalar ldMacTest.host[34].app 	errorCount:count 	0
attr interpolationmode  node
attr source  errorCount
attr title  "errorCount, count"
scalar ldMacTest.host[34].app 	appPkCount:count 	969437
attr interpolationmode  node
attr source  appPkCount
attr title  "appPkCount, count"
scalar ldMacTest.host[34].mac 	time10:count 	21
attr source  time10
attr title  "time10, count"
scalar ldMacTest.host[34].mac 	time9:count 	1072
attr source  time9
attr title  "time9, count"
scalar ldMacTest.host[34].mac 	time8:count 	59
attr source  time8
attr title  "time8, count"
scalar ldMacTest.host[34].mac 	time7:count 	60
attr source  time7
attr title  "time7, count"
scalar ldMacTest.host[34].mac 	time6:count 	68
attr source  time6
attr title  "time6, count"
scalar ldMacTest.host[34].mac 	time5:count 	70
attr source  time5
attr title  "time5, count"
scalar ldMacTest.host[34].mac 	time4:count 	0
attr source  time4
attr title  "time4, count"
scalar ldMacTest.host[34].mac 	time3:count 	0
attr source  time3
attr title  "time3, count"
scalar ldMacTest.host[34].mac 	time2:count 	0
attr source  time2
attr title  "time2, count"
scalar ldMacTest.host[34].mac 	time1:count 	0
attr source  time1
attr title  "time1, count"
scalar ldMacTest.host[34].mac 	time0:count 	1350
attr source  time0
attr title  "time0, count"
scalar ldMacTest.host[34].mac 	sentPkCount:count 	623977
attr interpolationmode  node
attr source  sentPkCount
attr title  "pkCount, count"
scalar ldMacTest.host[34].mac 	discardPkCount:count 	92402
attr interpolationmode  node
attr source  discardPkCount
attr title  "discardPkCount, count"
scalar ldMacTest.host[34].mac 	queueTime:mean 	138.87997759701
attr source  queueTime
attr title  "queueTime, mean"
scalar ldMacTest.host[35].app 	errorCount:count 	0
attr interpolationmode  node
attr source  errorCount
attr title  "errorCount, count"
scalar ldMacTest.host[35].app 	appPkCount:count 	946072
attr interpolationmode  node
attr source  appPkCount
attr title  "appPkCount, count"
scalar ldMacTest.host[35].mac 	time10:count 	161
attr source  time10
attr title  "time10, count"
scalar ldMacTest.host[35].mac 	time9:count 	42
attr source  time9
attr title  "time9, count"
scalar ldMacTest.host[35].mac 	time8:count 	52
attr source  time8
attr title  "time8, count"
scalar ldMacTest.host[35].mac 	time7:count 	1397
attr source  time7
attr title  "time7, count"
scalar ldMacTest.host[35].mac 	time6:count 	319
attr source  time6
attr title  "time6, count"
scalar ldMacTest.host[35].mac 	time5:count 	0
attr source  time5
attr title  "time5, count"
scalar ldMacTest.host[35].mac 	time4:count 	0
attr source  time4
attr title  "time4, count"
scalar ldMacTest.host[35].mac 	time3:count 	0
attr source  time3
attr title  "time3, count"
scalar ldMacTest.host[35].mac 	time2:count 	0
attr source  time2
attr title  "time2, count"
scalar ldMacTest.host[35].mac 	time1:count 	0
attr source  time1
attr title  "time1, count"
scalar ldMacTest.host[35].mac 	time0:count 	1971
attr source  time0
attr title  "time0, count"
scalar ldMacTest.host[35].mac 	sentPkCount:count 	732104
attr interpolationmode  node
attr source  sentPkCount
attr title  "pkCount, count"
scalar ldMacTest.host[35].mac 	discardPkCount:count 	99723
attr interpolationmode  node
attr source  discardPkCount
attr title  "discardPkCount, count"
scalar ldMacTest.host[35].mac 	queueTime:mean 	137.71630376716
attr source  queueTime
attr title  "queueTime, mean"
scalar ldMacTest.host[36].app 	errorCount:count 	0
attr interpolationmode  node
attr source  errorCount
attr title  "errorCount, count"
scalar ldMacTest.host[36].app 	appPkCount:count 	955566
attr interpolationmode  node
attr source  appPkCount
attr title  "appPkCount, count"
scalar ldMacTest.host[36].mac 	time10:count 	59
attr source  time10
attr title  "time10, count"
scalar ldMacTest.host[36].mac 	time9:count 	17
attr source  time9
attr title  "time9, count"
scalar ldMacTest.host[36].mac 	time8:count 	18
attr source  time8
attr title  "time8, count"
scalar ldMacTest.host[36].mac 	time7:count 	806
attr source  time7
attr title  "time7, count"
scalar ldMacTest.host[36].mac 	time6:count 	56
attr source  time6
attr title  "time6, count"
scalar ldMacTest.host[36].mac 	time5:count 	37
attr source  time5
attr title  "time5, count"
scalar ldMacTest.host[36].mac 	time4:count 	36
attr source  time4
attr title  "time4, count"
scalar ldMacTest.host[36].mac 	time3:count 	39
attr source  time3
attr title  "time3, count"
scalar ldMacTest.host[36].mac 	time2:count 	41
attr source  time2
attr title  "time2, count"
scalar ldMacTest.host[36].mac 	time1:count 	30
attr source  time1
attr title  "time1, count"
scalar ldMacTest.host[36].mac 	time0:count 	1139
attr source  time0
attr title  "time0, count"
scalar ldMacTest.host[36].mac 	sentPkCount:count 	674711
attr interpolationmode  node
attr source  sentPkCount
attr title  "pkCount, count"
scalar ldMacTest.host[36].mac 	discardPkCount:count 	67054
attr interpolationmode  node
attr source  discardPkCount
attr title  "discardPkCount, count"
scalar ldMacTest.host[36].mac 	queueTime:mean 	133.40339472861
attr source  queueTime
attr title  "queueTime, mean"
scalar ldMacTest.host[37].app 	errorCount:count 	0
attr interpolationmode  node
attr source  errorCount
attr title  "errorCount, count"
scalar ldMacTest.host[37].app 	appPkCount:count 	962034
attr interpolationmode  node
attr source  appPkCount
attr title  "appPkCount, count"
scalar ldMacTest.host[37].mac 	time10:count 	99
attr source  time10
attr title  "time10, count"
scalar ldMacTest.host[37].mac 	time9:count 	53
attr source  time9
attr title  "time9, count"
scalar ldMacTest.host[37].mac 	time8:count 	1019
attr source  time8
attr title  "time8, count"
scalar ldMacTest.host[37].mac 	time7:count 	18
attr source  time7
attr title  "time7, count"
scalar ldMacTest.host[37].mac 	time6:count 	20
attr source  time6
attr title  "time6, count"
scalar ldMacTest.host[37].mac 	time5:count 	19
attr source  time5
attr title  "time5, count"
scalar ldMacTest.host[37].mac 	time4:count 	40
attr source  time4
attr title  "time4, count"
scalar ldMacTest.host[37].mac 	time3:count 	40
attr source  time3
attr title  "time3, count"
scalar ldMacTest.host[37].mac 	time2:count 	41
attr source  time2
attr title  "time2, count"
scalar ldMacTest.host[37].mac 	time1:count 	43
attr source  time1
attr title  "time1, count"
scalar ldMacTest.host[37].mac 	time0:count 	1392
attr source  time0
attr title  "time0, count"
scalar ldMacTest.host[37].mac 	sentPkCount:count 	782140
attr interpolationmode  node
attr source  sentPkCount
attr title  "pkCount, count"
scalar ldMacTest.host[37].mac 	discardPkCount:count 	77452
attr interpolationmode  node
attr source  discardPkCount
attr title  "discardPkCount, count"
scalar ldMacTest.host[37].mac 	queueTime:mean 	130.63874843312
attr source  queueTime
attr title  "queueTime, mean"
scalar ldMacTest.host[38].app 	errorCount:count 	0
attr interpolationmode  node
attr source  errorCount
attr title  "errorCount, count"
scalar ldMacTest.host[38].app 	appPkCount:count 	990569
attr interpolationmode  node
attr source  appPkCount
attr title  "appPkCount, count"
scalar ldMacTest.host[38].mac 	time10:count 	45
attr source  time10
attr title  "time10, count"
scalar ldMacTest.host[38].mac 	time9:count 	57
attr source  time9
attr title  "time9, count"
scalar ldMacTest.host[38].mac 	time8:count 	1104
attr source  time8
attr title  "time8, count"
scalar ldMacTest.host[38].mac 	time7:count 	102
attr source  time7
attr title  "time7, count"
scalar ldMacTest.host[38].mac 	time6:count 	30
attr source  time6
attr title  "time6, count"
scalar ldMacTest.host[38].mac 	time5:count 	0
attr source  time5
attr title  "time5, count"
scalar ldMacTest.host[38].mac 	time4:count 	0
attr source  time4
attr title  "time4, count"
scalar ldMacTest.host[38].mac 	time3:count 	0
attr source  time3
attr title  "time3, count"
scalar ldMacTest.host[38].mac 	time2:count 	0
attr source  time2
attr title  "time2, count"
scalar ldMacTest.host[38].mac 	time1:count 	0
attr source  time1
attr title  "time1, count"
scalar ldMacTest.host[38].mac 	time0:count 	1338
attr source  time0
attr title  "time0, count"
scalar ldMacTest.host[38].mac 	sentPkCount:count 	820295
attr interpolationmode  node
attr source  sentPkCount
attr title  "pkCount, count"
scalar ldMacTest.host[38].mac 	discardPkCount:count 	150816
attr interpolationmode  node
attr source  discardPkCount
attr title  "discardPkCount, count"
scalar ldMacTest.host[38].mac 	queueTime:mean 	153.41088294978
attr source  queueTime
attr title  "queueTime, mean"
scalar ldMacTest.host[39].app 	errorCount:count 	0
attr interpolationmode  node
attr source  errorCount
attr title  "errorCount, count"
scalar ldMacTest.host[39].app 	appPkCount:count 	946159
attr interpolationmode  node
attr source  appPkCount
attr title  "appPkCount, count"
scalar ldMacTest.host[39].mac 	time10:count 	49
attr source  time10
attr title  "time10, count"
scalar ldMacTest.host[39].mac 	time9:count 	981
attr source  time9
attr title  "time9, count"
scalar ldMacTest.host[39].mac 	time8:count 	145
attr source  time8
attr title  "time8, count"
scalar ldMacTest.host[39].mac 	time7:count 	112
attr source  time7
attr title  "time7, count"
scalar ldMacTest.host[39].mac 	time6:count 	21
attr source  time6
attr title  "time6, count"
scalar ldMacTest.host[39].mac 	time5:count 	21
attr source  time5
attr title  "time5, count"
scalar ldMacTest.host[39].mac 	time4:count 	21
attr source  time4
attr title  "time4, count"
scalar ldMacTest.host[39].mac 	time3:count 	23
attr source  time3
attr title  "time3, count"
scalar ldMacTest.host[39].mac 	time2:count 	37
attr source  time2
attr title  "time2, count"
scalar ldMacTest.host[39].mac 	time1:count 	0
attr source  time1
attr title  "time1, count"
scalar ldMacTest.host[39].mac 	time0:count 	1410
attr source  time0
attr title  "time0, count"
scalar ldMacTest.host[39].mac 	sentPkCount:count 	830623
attr interpolationmode  node
attr source  sentPkCount
attr title  "pkCount, count"
scalar ldMacTest.host[39].mac 	discardPkCount:count 	97121
attr interpolationmode  node
attr source  discardPkCount
attr title  "discardPkCount, count"
scalar ldMacTest.host[39].mac 	queueTime:mean 	145.84211516734
attr source  queueTime
attr title  "queueTime, mean"
scalar ldMacTest.host[40].app 	errorCount:count 	0
attr interpolationmode  node
attr source  errorCount
attr title  "errorCount, count"
scalar ldMacTest.host[40].app 	appPkCount:count 	974776
attr interpolationmode  node
attr source  appPkCount
attr title  "appPkCount, count"
scalar ldMacTest.host[40].mac 	time10:count 	0
attr source  time10
attr title  "time10, count"
scalar ldMacTest.host[40].mac 	time9:count 	1090
attr source  time9
attr title  "time9, count"
scalar ldMacTest.host[40].mac 	time8:count 	169
attr source  time8
attr title  "time8, count"
scalar ldMacTest.host[40].mac 	time7:count 	51
attr source  time7
attr title  "time7, count"
scalar ldMacTest.host[40].mac 	time6:count 	41
attr source  time6
attr title  "time6, count"
scalar ldMacTest.host[40].mac 	time5:count 	41
attr source  time5
attr title  "time5, count"
scalar ldMacTest.host[40].mac 	time4:count 	45
attr source  time4
attr title  "time4, count"
scalar ldMacTest.host[40].mac 	time3:count 	47
attr source  time3
attr title  "time3, count"
scalar ldMacTest.host[40].mac 	time2:count 	62
attr source  time2
attr title  "time2, count"
scalar ldMacTest.host[40].mac 	time1:count 	30
attr source  time1
attr title  "time1, count"
scalar ldMacTest.host[40].mac 	time0:count 	1576
attr source  time0
attr title  "time0, count"
scalar ldMacTest.host[40].mac 	sentPkCount:count 	846369
attr interpolationmode  node
attr source  sentPkCount
attr title  "pkCount, count"
scalar ldMacTest.host[40].mac 	discardPkCount:count 	111205
attr interpolationmode  node
attr source  discardPkCount
attr title  "discardPkCount, count"
scalar ldMacTest.host[40].mac 	queueTime:mean 	142.25638079862
attr source  queueTime
attr title  "queueTime, mean"
scalar ldMacTest.host[41].app 	errorCount:count 	0
attr interpolationmode  node
attr source  errorCount
attr title  "errorCount, count"
scalar ldMacTest.host[41].app 	appPkCount:count 	952618
attr interpolationmode  node
attr source  appPkCount
attr title  "appPkCount, count"
scalar ldMacTest.host[41].mac 	time10:count 	0
attr source  time10
attr title  "time10, count"
scalar ldMacTest.host[41].mac 	time9:count 	0
attr source  time9
attr title  "time9, count"
scalar ldMacTest.host[41].mac 	time8:count 	568
attr source  time8
attr title  "time8, count"
scalar ldMacTest.host[41].mac 	time7:count 	97
attr source  time7
attr title  "time7, count"
scalar ldMacTest.host[41].mac 	time6:count 	59
attr source  time6
attr title  "time6, count"
scalar ldMacTest.host[41].mac 	time5:count 	59
attr source  time5
attr title  "time5, count"
scalar ldMacTest.host[41].mac 	time4:count 	61
attr source  time4
attr title  "time4, count"
scalar ldMacTest.host[41].mac 	time3:count 	64
attr source  time3
attr title  "time3, count"
scalar ldMacTest.host[41].mac 	time2:count 	81
attr source  time2
attr title  "time2, count"
scalar ldMacTest.host[41].mac 	time1:count 	20
attr source  time1
attr title  "time1, count"
scalar ldMacTest.host[41].mac 	time0:count 	1009
attr source  time0
attr title  "time0, count"
scalar ldMacTest.host[41].mac 	sentPkCount:count 	864278
attr interpolationmode  node
attr source  sentPkCount
attr title  "pkCount, count"
scalar ldMacTest.host[41].mac 	discardPkCount:count 	68709
attr interpolationmode  node
attr source  discardPkCount
attr title  "discardPkCount, count"
scalar ldMacTest.host[41].mac 	queueTime:mean 	139.67547448723
attr source  queueTime
attr title  "queueTime, mean"
scalar ldMacTest.host[42].app 	errorCount:count 	0
attr interpolationmode  node
attr source  errorCount
attr title  "errorCount, count"
scalar ldMacTest.host[42].app 	appPkCount:count 	943104
attr interpolationmode  node
attr source  appPkCount
attr title  "appPkCount, count"
scalar ldMacTest.host[42].mac 	time10:count 	0
attr source  time10
attr title  "time10, count"
scalar ldMacTest.host[42].mac 	time9:count 	0
attr source  time9
attr title  "time9, count"
scalar ldMacTest.host[42].mac 	time8:count 	476
attr source  time8
attr title  "time8, count"
scalar ldMacTest.host[42].mac 	time7:count 	195
attr source  time7
attr title  "time7, count"
scalar ldMacTest.host[42].mac 	time6:count 	67
attr source  time6
attr title  "time6, count"
scalar ldMacTest.host[42].mac 	time5:count 	80
attr source  time5
attr title  "time5, count"
scalar ldMacTest.host[42].mac 	time4:count 	131
attr source  time4
attr title  "time4, count"
scalar ldMacTest.host[42].mac 	time3:count 	58
attr source  time3
attr title  "time3, count"
scalar ldMacTest.host[42].mac 	time2:count 	0
attr source  time2
attr title  "time2, count"
scalar ldMacTest.host[42].mac 	time1:count 	0
attr source  time1
attr title  "time1, count"
scalar ldMacTest.host[42].mac 	time0:count 	1007
attr source  time0
attr title  "time0, count"
scalar ldMacTest.host[42].mac 	sentPkCount:count 	856791
attr interpolationmode  node
attr source  sentPkCount
attr title  "pkCount, count"
scalar ldMacTest.host[42].mac 	discardPkCount:count 	66505
attr interpolationmode  node
attr source  discardPkCount
attr title  "discardPkCount, count"
scalar ldMacTest.host[42].mac 	queueTime:mean 	139.27851926202
attr source  queueTime
attr title  "queueTime, mean"
scalar ldMacTest.host[43].app 	errorCount:count 	0
attr interpolationmode  node
attr source  errorCount
attr title  "errorCount, count"
scalar ldMacTest.host[43].app 	appPkCount:count 	951126
attr interpolationmode  node
attr source  appPkCount
attr title  "appPkCount, count"
scalar ldMacTest.host[43].mac 	time10:count 	62
attr source  time10
attr title  "time10, count"
scalar ldMacTest.host[43].mac 	time9:count 	919
attr source  time9
attr title  "time9, count"
scalar ldMacTest.host[43].mac 	time8:count 	41
attr source  time8
attr title  "time8, count"
scalar ldMacTest.host[43].mac 	time7:count 	44
attr source  time7
attr title  "time7, count"
scalar ldMacTest.host[43].mac 	time6:count 	48
attr source  time6
attr title  "time6, count"
scalar ldMacTest.host[43].mac 	time5:count 	60
attr source  time5
attr title  "time5, count"
scalar ldMacTest.host[43].mac 	time4:count 	85
attr source  time4
attr title  "time4, count"
scalar ldMacTest.host[43].mac 	time3:count 	0
attr source  time3
attr title  "time3, count"
scalar ldMacTest.host[43].mac 	time2:count 	0
attr source  time2
attr title  "time2, count"
scalar ldMacTest.host[43].mac 	time1:count 	0
attr source  time1
attr title  "time1, count"
scalar ldMacTest.host[43].mac 	time0:count 	1259
attr source  time0
attr title  "time0, count"
scalar ldMacTest.host[43].mac 	sentPkCount:count 	835845
attr interpolationmode  node
attr source  sentPkCount
attr title  "pkCount, count"
scalar ldMacTest.host[43].mac 	discardPkCount:count 	95357
attr interpolationmode  node
attr source  discardPkCount
attr title  "discardPkCount, count"
scalar ldMacTest.host[43].mac 	queueTime:mean 	148.3516739023
attr source  queueTime
attr title  "queueTime, mean"
scalar ldMacTest.host[44].app 	errorCount:count 	0
attr interpolationmode  node
attr source  errorCount
attr title  "errorCount, count"
scalar ldMacTest.host[44].app 	appPkCount:count 	959899
attr interpolationmode  node
attr source  appPkCount
attr title  "appPkCount, count"
scalar ldMacTest.host[44].mac 	time10:count 	5
attr source  time10
attr title  "time10, count"
scalar ldMacTest.host[44].mac 	time9:count 	877
attr source  time9
attr title  "time9, count"
scalar ldMacTest.host[44].mac 	time8:count 	83
attr source  time8
attr title  "time8, count"
scalar ldMacTest.host[44].mac 	time7:count 	114
attr source  time7
attr title  "time7, count"
scalar ldMacTest.host[44].mac 	time6:count 	84
attr source  time6
attr title  "time6, count"
scalar ldMacTest.host[44].mac 	time5:count 	73
attr source  time5
attr title  "time5, count"
scalar ldMacTest.host[44].mac 	time4:count 	48
attr source  time4
attr title  "time4, count"
scalar ldMacTest.host[44].mac 	time3:count 	0
attr source  time3
attr title  "time3, count"
scalar ldMacTest.host[44].mac 	time2:count 	0
attr source  time2
attr title  "time2, count"
scalar ldMacTest.host[44].mac 	time1:count 	0
attr source  time1
attr title  "time1, count"
scalar ldMacTest.host[44].mac 	time0:count 	1284
attr source  time0
attr title  "time0, count"
scalar ldMacTest.host[44].mac 	sentPkCount:count 	847626
attr interpolationmode  node
attr source  sentPkCount
attr title  "pkCount, count"
scalar ldMacTest.host[44].mac 	discardPkCount:count 	94014
attr interpolationmode  node
attr source  discardPkCount
attr title  "discardPkCount, count"
scalar ldMacTest.host[44].mac 	queueTime:mean 	146.78620593009
attr source  queueTime
attr title  "queueTime, mean"
scalar ldMacTest.host[45].app 	errorCount:count 	0
attr interpolationmode  node
attr source  errorCount
[...]
scalar ldMacTest.host[78].mac 	time7:count 	111
attr source  time7
attr title  "time7, count"
scalar ldMacTest.host[78].mac 	time6:count 	51
attr source  time6
attr title  "time6, count"
scalar ldMacTest.host[78].mac 	time5:count 	50
attr source  time5
attr title  "time5, count"
scalar ldMacTest.host[78].mac 	time4:count 	58
attr source  time4
attr title  "time4, count"
scalar ldMacTest.host[78].mac 	time3:count 	87
attr source  time3
attr title  "time3, count"
scalar ldMacTest.host[78].mac 	time2:count 	0
attr source  time2
attr title  "time2, count"
scalar ldMacTest.host[78].mac 	time1:count 	0
attr source  time1
attr title  "time1, count"
scalar ldMacTest.host[78].mac 	time0:count 	1368
attr source  time0
attr title  "time0, count"
scalar ldMacTest.host[78].mac 	sentPkCount:count 	848324
attr interpolationmode  node
attr source  sentPkCount
attr title  "pkCount, count"
scalar ldMacTest.host[78].mac 	discardPkCount:count 	84912
attr interpolationmode  node
attr source  discardPkCount
attr title  "discardPkCount, count"
scalar ldMacTest.host[78].mac 	queueTime:mean 	141.61330323376
attr source  queueTime
attr title  "queueTime, mean"
scalar ldMacTest.host[79].app 	errorCount:count 	0
attr interpolationmode  node
attr source  errorCount
attr title  "errorCount, count"
scalar ldMacTest.host[79].app 	appPkCount:count 	975130
attr interpolationmode  node
attr source  appPkCount
attr title  "appPkCount, count"
scalar ldMacTest.host[79].mac 	time10:count 	622
attr source  time10
attr title  "time10, count"
scalar ldMacTest.host[79].mac 	time9:count 	132
attr source  time9
attr title  "time9, count"
scalar ldMacTest.host[79].mac 	time8:count 	79
attr source  time8
attr title  "time8, count"
scalar ldMacTest.host[79].mac 	time7:count 	99
attr source  time7
attr title  "time7, count"
scalar ldMacTest.host[79].mac 	time6:count 	112
attr source  time6
attr title  "time6, count"
scalar ldMacTest.host[79].mac 	time5:count 	0
attr source  time5
attr title  "time5, count"
scalar ldMacTest.host[79].mac 	time4:count 	0
attr source  time4
attr title  "time4, count"
scalar ldMacTest.host[79].mac 	time3:count 	0
attr source  time3
attr title  "time3, count"
scalar ldMacTest.host[79].mac 	time2:count 	0
attr source  time2
attr title  "time2, count"
scalar ldMacTest.host[79].mac 	time1:count 	0
attr source  time1
attr title  "time1, count"
scalar ldMacTest.host[79].mac 	time0:count 	1044
attr source  time0
attr title  "time0, count"
scalar ldMacTest.host[79].mac 	sentPkCount:count 	830095
attr interpolationmode  node
attr source  sentPkCount
attr title  "pkCount, count"
scalar ldMacTest.host[79].mac 	discardPkCount:count 	125763
attr interpolationmode  node
attr source  discardPkCount
attr title  "discardPkCount, count"
scalar ldMacTest.host[79].mac 	queueTime:mean 	147.46622537423
attr source  queueTime
attr title  "queueTime, mean"
scalar ldMacTest.host[80].app 	errorCount:count 	0
attr interpolationmode  node
attr source  errorCount
attr title  "errorCount, count"
scalar ldMacTest.host[80].app 	appPkCount:count 	950759
attr interpolationmode  node
attr source  appPkCount
attr title  "appPkCount, count"
scalar ldMacTest.host[80].mac 	time10:count 	293
attr source  time10
attr title  "time10, count"
scalar ldMacTest.host[80].mac 	time9:count 	120
attr source  time9
attr title  "time9, count"
scalar ldMacTest.host[80].mac 	time8:count 	86
attr source  time8
attr title  "time8, count"
scalar ldMacTest.host[80].mac 	time7:count 	25
attr source  time7
attr title  "time7, count"
scalar ldMacTest.host[80].mac 	time6:count 	18
attr source  time6
attr title  "time6, count"
scalar ldMacTest.host[80].mac 	time5:count 	0
attr source  time5
attr title  "time5, count"
scalar ldMacTest.host[80].mac 	time4:count 	0
attr source  time4
attr title  "time4, count"
scalar ldMacTest.host[80].mac 	time3:count 	0
attr source  time3
attr title  "time3, count"
scalar ldMacTest.host[80].mac 	time2:count 	0
attr source  time2
attr title  "time2, count"
scalar ldMacTest.host[80].mac 	time1:count 	0
attr source  time1
attr title  "time1, count"
scalar ldMacTest.host[80].mac 	time0:count 	542
attr source  time0
attr title  "time0, count"
scalar ldMacTest.host[80].mac 	sentPkCount:count 	667044
attr interpolationmode  node
attr source  sentPkCount
attr title  "pkCount, count"
scalar ldMacTest.host[80].mac 	discardPkCount:count 	79318
attr interpolationmode  node
attr source  discardPkCount
attr title  "discardPkCount, count"
scalar ldMacTest.host[80].mac 	queueTime:mean 	132.34225059104
attr source  queueTime
attr title  "queueTime, mean"
scalar ldMacTest.host[81].app 	errorCount:count 	0
attr interpolationmode  node
attr source  errorCount
attr title  "errorCount, count"
scalar ldMacTest.host[81].app 	appPkCount:count 	991437
attr interpolationmode  node
attr source  appPkCount
attr title  "appPkCount, count"
scalar ldMacTest.host[81].mac 	time10:count 	60
attr source  time10
attr title  "time10, count"
scalar ldMacTest.host[81].mac 	time9:count 	57
attr source  time9
attr title  "time9, count"
scalar ldMacTest.host[81].mac 	time8:count 	85
attr source  time8
attr title  "time8, count"
scalar ldMacTest.host[81].mac 	time7:count 	21
attr source  time7
attr title  "time7, count"
scalar ldMacTest.host[81].mac 	time6:count 	863
attr source  time6
attr title  "time6, count"
scalar ldMacTest.host[81].mac 	time5:count 	178
attr source  time5
attr title  "time5, count"
scalar ldMacTest.host[81].mac 	time4:count 	45
attr source  time4
attr title  "time4, count"
scalar ldMacTest.host[81].mac 	time3:count 	47
attr source  time3
attr title  "time3, count"
scalar ldMacTest.host[81].mac 	time2:count 	24
attr source  time2
attr title  "time2, count"
scalar ldMacTest.host[81].mac 	time1:count 	0
attr source  time1
attr title  "time1, count"
scalar ldMacTest.host[81].mac 	time0:count 	1380
attr source  time0
attr title  "time0, count"
scalar ldMacTest.host[81].mac 	sentPkCount:count 	833264
attr interpolationmode  node
attr source  sentPkCount
attr title  "pkCount, count"
scalar ldMacTest.host[81].mac 	discardPkCount:count 	138404
attr interpolationmode  node
attr source  discardPkCount
attr title  "discardPkCount, count"
scalar ldMacTest.host[81].mac 	queueTime:mean 	150.18500553039
attr source  queueTime
attr title  "queueTime, mean"
scalar ldMacTest.host[82].app 	errorCount:count 	0
attr interpolationmode  node
attr source  errorCount
attr title  "errorCount, count"
scalar ldMacTest.host[82].app 	appPkCount:count 	956607
attr interpolationmode  node
attr source  appPkCount
attr title  "appPkCount, count"
scalar ldMacTest.host[82].mac 	time10:count 	553
attr source  time10
attr title  "time10, count"
scalar ldMacTest.host[82].mac 	time9:count 	46
attr source  time9
attr title  "time9, count"
scalar ldMacTest.host[82].mac 	time8:count 	44
attr source  time8
attr title  "time8, count"
scalar ldMacTest.host[82].mac 	time7:count 	44
attr source  time7
attr title  "time7, count"
scalar ldMacTest.host[82].mac 	time6:count 	45
attr source  time6
attr title  "time6, count"
scalar ldMacTest.host[82].mac 	time5:count 	51
attr source  time5
attr title  "time5, count"
scalar ldMacTest.host[82].mac 	time4:count 	67
attr source  time4
attr title  "time4, count"
scalar ldMacTest.host[82].mac 	time3:count 	108
attr source  time3
attr title  "time3, count"
scalar ldMacTest.host[82].mac 	time2:count 	2
attr source  time2
attr title  "time2, count"
scalar ldMacTest.host[82].mac 	time1:count 	0
attr source  time1
attr title  "time1, count"
scalar ldMacTest.host[82].mac 	time0:count 	960
attr source  time0
attr title  "time0, count"
scalar ldMacTest.host[82].mac 	sentPkCount:count 	848795
attr interpolationmode  node
attr source  sentPkCount
attr title  "pkCount, count"
scalar ldMacTest.host[82].mac 	discardPkCount:count 	87889
attr interpolationmode  node
attr source  discardPkCount
attr title  "discardPkCount, count"
scalar ldMacTest.host[82].mac 	queueTime:mean 	145.49320106325
attr source  queueTime
attr title  "queueTime, mean"
scalar ldMacTest.host[83].app 	errorCount:count 	0
attr interpolationmode  node
attr source  errorCount
attr title  "errorCount, count"
scalar ldMacTest.host[83].app 	appPkCount:count 	941150
attr interpolationmode  node
attr source  appPkCount
attr title  "appPkCount, count"
scalar ldMacTest.host[83].mac 	time10:count 	108
attr source  time10
attr title  "time10, count"
scalar ldMacTest.host[83].mac 	time9:count 	38
attr source  time9
attr title  "time9, count"
scalar ldMacTest.host[83].mac 	time8:count 	1025
attr source  time8
attr title  "time8, count"
scalar ldMacTest.host[83].mac 	time7:count 	144
attr source  time7
attr title  "time7, count"
scalar ldMacTest.host[83].mac 	time6:count 	50
attr source  time6
attr title  "time6, count"
scalar ldMacTest.host[83].mac 	time5:count 	68
attr source  time5
attr title  "time5, count"
scalar ldMacTest.host[83].mac 	time4:count 	53
attr source  time4
attr title  "time4, count"
scalar ldMacTest.host[83].mac 	time3:count 	0
attr source  time3
attr title  "time3, count"
scalar ldMacTest.host[83].mac 	time2:count 	0
attr source  time2
attr title  "time2, count"
scalar ldMacTest.host[83].mac 	time1:count 	0
attr source  time1
attr title  "time1, count"
scalar ldMacTest.host[83].mac 	time0:count 	1486
attr source  time0
attr title  "time0, count"
scalar ldMacTest.host[83].mac 	sentPkCount:count 	729482
attr interpolationmode  node
attr source  sentPkCount
attr title  "pkCount, count"
scalar ldMacTest.host[83].mac 	discardPkCount:count 	68450
attr interpolationmode  node
attr source  discardPkCount
attr title  "discardPkCount, count"
scalar ldMacTest.host[83].mac 	queueTime:mean 	130.53163146248
attr source  queueTime
attr title  "queueTime, mean"
scalar ldMacTest.host[84].app 	errorCount:count 	0
attr interpolationmode  node
attr source  errorCount
attr title  "errorCount, count"
scalar ldMacTest.host[84].app 	appPkCount:count 	956506
attr interpolationmode  node
attr source  appPkCount
attr title  "appPkCount, count"
scalar ldMacTest.host[84].mac 	time10:count 	30
attr source  time10
attr title  "time10, count"
scalar ldMacTest.host[84].mac 	time9:count 	24
attr source  time9
attr title  "time9, count"
scalar ldMacTest.host[84].mac 	time8:count 	569
attr source  time8
attr title  "time8, count"
scalar ldMacTest.host[84].mac 	time7:count 	334
attr source  time7
attr title  "time7, count"
scalar ldMacTest.host[84].mac 	time6:count 	40
attr source  time6
attr title  "time6, count"
scalar ldMacTest.host[84].mac 	time5:count 	40
attr source  time5
attr title  "time5, count"
scalar ldMacTest.host[84].mac 	time4:count 	40
attr source  time4
attr title  "time4, count"
scalar ldMacTest.host[84].mac 	time3:count 	44
attr source  time3
attr title  "time3, count"
scalar ldMacTest.host[84].mac 	time2:count 	54
attr source  time2
attr title  "time2, count"
scalar ldMacTest.host[84].mac 	time1:count 	0
attr source  time1
attr title  "time1, count"
scalar ldMacTest.host[84].mac 	time0:count 	1175
attr source  time0
attr title  "time0, count"
scalar ldMacTest.host[84].mac 	sentPkCount:count 	723199
attr interpolationmode  node
attr source  sentPkCount
attr title  "pkCount, count"
scalar ldMacTest.host[84].mac 	discardPkCount:count 	67078
attr interpolationmode  node
attr source  discardPkCount
attr title  "discardPkCount, count"
scalar ldMacTest.host[84].mac 	queueTime:mean 	137.0908425517
attr source  queueTime
attr title  "queueTime, mean"
scalar ldMacTest.host[85].app 	errorCount:count 	0
attr interpolationmode  node
attr source  errorCount
attr title  "errorCount, count"
scalar ldMacTest.host[85].app 	appPkCount:count 	950766
attr interpolationmode  node
attr source  appPkCount
attr title  "appPkCount, count"
scalar ldMacTest.host[85].mac 	time10:count 	71
attr source  time10
attr title  "time10, count"
scalar ldMacTest.host[85].mac 	time9:count 	84
attr source  time9
attr title  "time9, count"
scalar ldMacTest.host[85].mac 	time8:count 	1091
attr source  time8
attr title  "time8, count"
scalar ldMacTest.host[85].mac 	time7:count 	46
attr source  time7
attr title  "time7, count"
scalar ldMacTest.host[85].mac 	time6:count 	0
attr source  time6
attr title  "time6, count"
scalar ldMacTest.host[85].mac 	time5:count 	0
attr source  time5
attr title  "time5, count"
scalar ldMacTest.host[85].mac 	time4:count 	0
attr source  time4
attr title  "time4, count"
scalar ldMacTest.host[85].mac 	time3:count 	0
attr source  time3
attr title  "time3, count"
scalar ldMacTest.host[85].mac 	time2:count 	0
attr source  time2
attr title  "time2, count"
scalar ldMacTest.host[85].mac 	time1:count 	0
attr source  time1
attr title  "time1, count"
scalar ldMacTest.host[85].mac 	time0:count 	1292
attr source  time0
attr title  "time0, count"
scalar ldMacTest.host[85].mac 	sentPkCount:count 	784517
attr interpolationmode  node
attr source  sentPkCount
attr title  "pkCount, count"
scalar ldMacTest.host[85].mac 	discardPkCount:count 	91329
attr interpolationmode  node
attr source  discardPkCount
attr title  "discardPkCount, count"
scalar ldMacTest.host[85].mac 	queueTime:mean 	132.46997821962
attr source  queueTime
attr title  "queueTime, mean"
scalar ldMacTest.host[86].app 	errorCount:count 	0
attr interpolationmode  node
attr source  errorCount
attr title  "errorCount, count"
scalar ldMacTest.host[86].app 	appPkCount:count 	972055
attr interpolationmode  node
attr source  appPkCount
attr title  "appPkCount, count"
scalar ldMacTest.host[86].mac 	time10:count 	0
attr source  time10
attr title  "time10, count"
scalar ldMacTest.host[86].mac 	time9:count 	37
attr source  time9
attr title  "time9, count"
scalar ldMacTest.host[86].mac 	time8:count 	39
attr source  time8
attr title  "time8, count"
scalar ldMacTest.host[86].mac 	time7:count 	44
attr source  time7
attr title  "time7, count"
scalar ldMacTest.host[86].mac 	time6:count 	167
attr source  time6
attr title  "time6, count"
scalar ldMacTest.host[86].mac 	time5:count 	65
attr source  time5
attr title  "time5, count"
scalar ldMacTest.host[86].mac 	time4:count 	17
attr source  time4
attr title  "time4, count"
scalar ldMacTest.host[86].mac 	time3:count 	19
attr source  time3
attr title  "time3, count"
scalar ldMacTest.host[86].mac 	time2:count 	313
attr source  time2
attr title  "time2, count"
scalar ldMacTest.host[86].mac 	time1:count 	603
attr source  time1
attr title  "time1, count"
scalar ldMacTest.host[86].mac 	time0:count 	1304
attr source  time0
attr title  "time0, count"
scalar ldMacTest.host[86].mac 	sentPkCount:count 	839855
attr interpolationmode  node
attr source  sentPkCount
attr title  "pkCount, count"
scalar ldMacTest.host[86].mac 	discardPkCount:count 	114249
attr interpolationmode  node
attr source  discardPkCount
attr title  "discardPkCount, count"
scalar ldMacTest.host[86].mac 	queueTime:mean 	142.56419846773
attr source  queueTime
attr title  "queueTime, mean"
scalar ldMacTest.host[87].app 	errorCount:count 	0
attr interpolationmode  node
attr source  errorCount
attr title  "errorCount, count"
scalar ldMacTest.host[87].app 	appPkCount:count 	954850
attr interpolationmode  node
attr source  appPkCount
attr title  "appPkCount, count"
scalar ldMacTest.host[87].mac 	time10:count 	85
attr source  time10
attr title  "time10, count"
scalar ldMacTest.host[87].mac 	time9:count 	17
attr source  time9
attr title  "time9, count"
scalar ldMacTest.host[87].mac 	time8:count 	18
attr source  time8
attr title  "time8, count"
scalar ldMacTest.host[87].mac 	time7:count 	44
attr source  time7
attr title  "time7, count"
scalar ldMacTest.host[87].mac 	time6:count 	42
attr source  time6
attr title  "time6, count"
scalar ldMacTest.host[87].mac 	time5:count 	52
attr source  time5
attr title  "time5, count"
scalar ldMacTest.host[87].mac 	time4:count 	83
attr source  time4
attr title  "time4, count"
scalar ldMacTest.host[87].mac 	time3:count 	48
attr source  time3
attr title  "time3, count"
scalar ldMacTest.host[87].mac 	time2:count 	51
attr source  time2
attr title  "time2, count"
scalar ldMacTest.host[87].mac 	time1:count 	0
attr source  time1
attr title  "time1, count"
scalar ldMacTest.host[87].mac 	time0:count 	440
attr source  time0
attr title  "time0, count"
scalar ldMacTest.host[87].mac 	sentPkCount:count 	743523
attr interpolationmode  node
attr source  sentPkCount
attr title  "pkCount, count"
scalar ldMacTest.host[87].mac 	discardPkCount:count 	86171
attr interpolationmode  node
attr source  discardPkCount
attr title  "discardPkCount, count"
scalar ldMacTest.host[87].mac 	queueTime:mean 	150.83196328239
attr source  queueTime
attr title  "queueTime, mean"
scalar ldMacTest.host[88].app 	errorCount:count 	0
attr interpolationmode  node
attr source  errorCount
attr title  "errorCount, count"
scalar ldMacTest.host[88].app 	appPkCount:count 	930699
attr interpolationmode  node
attr source  appPkCount
attr title  "appPkCount, count"
scalar ldMacTest.host[88].mac 	time10:count 	20
attr source  time10
attr title  "time10, count"
scalar ldMacTest.host[88].mac 	time9:count 	22
attr source  time9
attr title  "time9, count"
scalar ldMacTest.host[88].mac 	time8:count 	1194
attr source  time8
attr title  "time8, count"
scalar ldMacTest.host[88].mac 	time7:count 	48
attr source  time7
attr title  "time7, count"
scalar ldMacTest.host[88].mac 	time6:count 	53
attr source  time6
attr title  "time6, count"
scalar ldMacTest.host[88].mac 	time5:count 	75
attr source  time5
attr title  "time5, count"
scalar ldMacTest.host[88].mac 	time4:count 	61
attr source  time4
attr title  "time4, count"
scalar ldMacTest.host[88].mac 	time3:count 	0
attr source  time3
attr title  "time3, count"
scalar ldMacTest.host[88].mac 	time2:count 	0
attr source  time2
attr title  "time2, count"
scalar ldMacTest.host[88].mac 	time1:count 	0
attr source  time1
attr title  "time1, count"
scalar ldMacTest.host[88].mac 	time0:count 	1473
attr source  time0
attr title  "time0, count"
scalar ldMacTest.host[88].mac 	sentPkCount:count 	748714
attr interpolationmode  node
attr source  sentPkCount
attr title  "pkCount, count"
scalar ldMacTest.host[88].mac 	discardPkCount:count 	62644
attr interpolationmode  node
attr source  discardPkCount
attr title  "discardPkCount, count"
scalar ldMacTest.host[88].mac 	queueTime:mean 	134.35123900194
attr source  queueTime
attr title  "queueTime, mean"
scalar ldMacTest.host[89].app 	errorCount:count 	0
attr interpolationmode  node
attr source  errorCount
attr title  "errorCount, count"
scalar ldMacTest.host[89].app 	appPkCount:count 	977784
attr interpolationmode  node
attr source  appPkCount
attr title  "appPkCount, count"
scalar ldMacTest.host[89].mac 	time10:count 	0
attr source  time10
attr title  "time10, count"
scalar ldMacTest.host[89].mac 	time9:count 	37
attr source  time9
attr title  "time9, count"
scalar ldMacTest.host[89].mac 	time8:count 	54
attr source  time8
attr title  "time8, count"
scalar ldMacTest.host[89].mac 	time7:count 	72
attr source  time7
attr title  "time7, count"
scalar ldMacTest.host[89].mac 	time6:count 	41
attr source  time6
attr title  "time6, count"
scalar ldMacTest.host[89].mac 	time5:count 	42
attr source  time5
attr title  "time5, count"
scalar ldMacTest.host[89].mac 	time4:count 	45
attr source  time4
attr title  "time4, count"
scalar ldMacTest.host[89].mac 	time3:count 	1002
attr source  time3
attr title  "time3, count"
scalar ldMacTest.host[89].mac 	time2:count 	52
attr source  time2
attr title  "time2, count"
scalar ldMacTest.host[89].mac 	time1:count 	0
attr source  time1
attr title  "time1, count"
scalar ldMacTest.host[89].mac 	time0:count 	1345
attr source  time0
attr title  "time0, count"
scalar ldMacTest.host[89].mac 	sentPkCount:count 	831623
attr interpolationmode  node
attr source  sentPkCount
attr title  "pkCount, count"
scalar ldMacTest.host[89].mac 	discardPkCount:count 	126521
attr interpolationmode  node
attr source  discardPkCount
attr title  "discardPkCount, count"
scalar ldMacTest.host[89].mac 	queueTime:mean 	141.97114694486
attr source  queueTime
attr title  "queueTime, mean"
